<?xml version="1.0" encoding="UTF-8"?>

<!-- generated on Thu Jan  1 18:54:55 2015 by SUMO polyconvert Version 0.19.0
<?xml version="1.0" encoding="UTF-8"?>

<configuration xmlns:xsi="http://www.w3.org/2001/XMLSchema-instance" xsi:noNamespaceSchemaLocation="http://sumo-sim.org/xsd/polyconvertConfiguration.xsd">

    <input>
        <net-file value="map.net.xml"/>
        <osm-files value="map.osm.xml"/>
        <type-file value="typemap.xml"/>
    </input>

    <output>
        <output-file value="map.poly.xml"/>
    </output>

</configuration>
-->

<shapes>
    <poly id="100108364" type="residential" color="235,235,227" fill="1" layer="-11.00" shape="25307.86,32412.48 24647.23,32584.98 24398.39,32545.49 24237.29,32377.59 23916.00,31142.47 23925.95,30999.54 23998.02,30859.73 24120.82,30742.48 24861.56,30552.80 24813.52,30365.46 24800.17,30307.00 25382.63,30179.79 25748.45,29984.90 25939.96,29931.27 26152.90,29943.16 26360.78,30051.67 26520.18,30250.46 26613.28,30668.03 26759.89,30635.68 26921.45,31360.35 26101.84,31541.20 26068.90,31580.01 25995.49,31696.28 25967.75,32066.60 25906.34,32179.04 25828.41,32251.05 25429.13,32377.81 25307.86,32412.48"/>
    <poly id="100240918" type="commercial" color="209,209,204" fill="1" layer="-11.00" shape="26012.76,32166.77 26873.42,31936.13 26731.79,31386.25 26089.27,31556.63 26068.90,31580.01 26033.17,31639.90 26007.04,31719.89 25993.76,31793.00 25994.14,31857.35 26001.76,31921.45 26009.32,31987.61 25998.31,32041.75 25985.49,32078.28 26012.76,32166.77"/>
    <poly id="100248745" type="building" color="255,230,230" fill="1" layer="2.00" shape="24767.69,31928.65 24784.46,31925.81 24781.77,31885.41 24770.11,31871.48 24732.54,31870.61 24728.33,31888.68 24758.84,31889.64 24765.08,31894.39 24767.69,31928.65"/>
    <poly id="100248749" type="building" color="255,230,230" fill="1" layer="2.00" shape="24764.72,32013.50 24789.28,31997.39 24790.54,31992.11 24777.79,31960.61 24792.78,31956.92 24809.98,31991.88 24806.62,32005.97 24774.61,32027.44 24764.72,32013.50"/>
    <poly id="100248757" type="building" color="255,230,230" fill="1" layer="2.00" shape="24716.46,32043.52 24680.21,32041.76 24668.58,32030.02 24662.83,31992.30 24679.13,31987.71 24682.57,32016.67 24687.08,32024.97 24719.37,32027.22 24716.46,32043.52"/>
    <poly id="100248762" type="building" color="255,230,230" fill="1" layer="2.00" shape="24670.78,31954.41 24655.36,31958.10 24639.45,31921.37 24644.58,31905.94 24675.72,31886.67 24685.56,31897.10 24659.72,31916.30 24657.60,31923.36 24670.78,31954.41"/>
    <poly id="102122565" type="building" color="255,230,230" fill="1" layer="2.00" shape="25241.49,30555.30 25256.09,30565.91 25281.39,30530.84 25287.39,30527.97 25296.67,30531.06 25304.54,30517.38 25287.98,30509.98 25273.15,30513.35 25241.49,30555.30"/>
    <poly id="102122570" type="building" color="255,230,230" fill="1" layer="2.00" shape="25227.57,30544.01 25212.59,30534.99 25237.10,30501.13 25237.84,30495.12 25232.50,30485.19 25247.23,30473.43 25257.45,30488.10 25257.20,30501.30 25227.57,30544.01"/>
    <poly id="102122571" type="building" color="255,230,230" fill="1" layer="2.00" shape="25309.62,30493.60 25295.43,30483.77 25310.85,30462.01 25322.07,30458.68 25333.33,30459.75 25332.73,30476.94 25323.09,30477.46 25309.62,30493.60"/>
    <poly id="102122572" type="building" color="255,230,230" fill="1" layer="2.00" shape="25354.32,30477.80 25346.91,30462.29 25358.10,30456.96 25369.36,30457.62 25400.56,30479.64 25391.89,30494.13 25364.35,30475.27 25354.32,30477.80"/>
    <poly id="102122573" type="building" color="255,230,230" fill="1" layer="2.00" shape="25412.05,30465.12 25422.74,30451.40 25397.57,30430.52 25396.65,30420.93 25378.53,30417.15 25376.25,30429.17 25381.22,30441.10 25412.05,30465.12"/>
    <poly id="102122574" type="building" color="255,230,230" fill="1" layer="2.00" shape="25375.95,30404.24 25390.72,30396.07 25389.40,30386.09 25399.25,30369.20 25385.86,30358.96 25371.23,30379.52 25370.59,30392.32 25375.95,30404.24"/>
    <poly id="102122575" type="building" color="255,230,230" fill="1" layer="2.00" shape="25264.55,30353.19 25275.24,30339.08 25301.97,30356.74 25310.82,30357.44 25321.03,30370.51 25309.82,30375.43 25296.15,30374.40 25264.55,30353.19"/>
    <poly id="102122576" type="building" color="255,230,230" fill="1" layer="2.00" shape="25270.79,30414.67 25288.50,30417.66 25291.97,30404.82 25286.61,30393.30 25256.59,30369.67 25243.48,30382.21 25271.07,30404.27 25270.79,30414.67"/>
    <poly id="102122577" type="building" color="255,230,230" fill="1" layer="2.00" shape="25289.96,30427.49 25294.49,30437.43 25294.66,30451.02 25280.84,30472.36 25264.67,30463.36 25276.10,30444.83 25273.56,30434.07 25289.96,30427.49"/>
    <poly id="102122578" type="building" color="255,230,230" fill="1" layer="2.00" shape="25410.01,30521.59 25399.79,30506.92 25413.76,30498.36 25428.23,30498.59 25469.15,30526.49 25459.27,30541.39 25422.40,30515.84 25410.01,30521.59"/>
    <poly id="102122579" type="building" color="255,230,230" fill="1" layer="2.00" shape="25440.68,30452.36 25457.22,30457.76 25457.37,30470.55 25491.46,30499.33 25480.79,30514.24 25441.05,30483.93 25436.05,30469.61 25440.68,30452.36"/>
    <poly id="102122580" type="building" color="255,230,230" fill="1" layer="2.00" shape="25422.18,30359.33 25436.52,30348.77 25433.16,30336.42 25455.64,30299.78 25443.47,30290.33 25413.78,30328.66 25412.75,30343.46 25422.18,30359.33"/>
    <poly id="102122581" type="building" color="255,230,230" fill="1" layer="2.00" shape="25407.37,30261.57 25420.75,30271.80 25391.50,30313.31 25377.48,30316.68 25358.91,30310.10 25365.17,30295.63 25376.86,30298.70 25407.37,30261.57"/>
    <poly id="102122582" type="building" color="255,230,230" fill="1" layer="2.00" shape="25255.10,30310.69 25266.50,30323.35 25252.97,30335.10 25238.90,30334.86 25196.35,30304.99 25204.63,30291.30 25240.68,30314.86 25255.10,30310.69"/>
    <poly id="102122583" type="building" color="255,230,230" fill="1" layer="2.00" shape="25173.79,30334.04 25207.00,30356.02 25211.96,30366.76 25209.23,30373.99 25224.17,30380.20 25230.00,30363.75 25226.22,30349.40 25184.89,30321.11 25173.79,30334.04"/>
    <poly id="102122584" type="building" color="255,230,230" fill="1" layer="2.00" shape="25332.95,30351.99 25342.19,30353.19 25356.25,30339.14 25369.76,30346.31 25356.83,30366.64 25342.67,30371.51 25331.85,30370.08 25332.95,30351.99"/>
    <poly id="102123485" type="building" color="255,230,230" fill="1" layer="2.00" shape="24626.36,32048.36 24643.43,32048.79 24640.39,32006.08 24627.63,31995.54 24586.00,32002.95 24590.62,32019.24 24623.41,32013.20 24626.36,32048.36"/>
    <poly id="102123490" type="building" color="255,230,230" fill="1" layer="2.00" shape="24695.03,32082.75 24696.08,32063.89 24732.13,32065.98 24744.88,32074.62 24756.78,32118.49 24740.38,32121.83 24731.10,32086.10 24695.03,32082.75"/>
    <poly id="102123493" type="building" color="255,230,230" fill="1" layer="2.00" shape="24778.22,32113.84 24766.34,32071.85 24769.34,32057.99 24802.59,32037.48 24812.89,32053.07 24785.87,32066.59 24792.06,32108.64 24778.22,32113.84"/>
    <poly id="102123496" type="building" color="255,230,230" fill="1" layer="2.00" shape="24838.78,31997.44 24853.86,31989.72 24840.19,31955.94 24869.80,31948.04 24868.33,31929.83 24829.85,31937.19 24821.21,31954.90 24838.78,31997.44"/>
    <poly id="102123500" type="building" color="255,230,230" fill="1" layer="2.00" shape="24862.39,31909.15 24858.44,31895.99 24826.26,31900.78 24822.04,31864.36 24804.34,31864.57 24806.74,31907.29 24822.03,31917.80 24862.39,31909.15"/>
    <poly id="102123503" type="building" color="255,230,230" fill="1" layer="2.00" shape="24752.96,31849.46 24754.68,31834.99 24721.76,31830.98 24709.89,31788.99 24692.85,31791.71 24702.86,31836.23 24717.53,31846.75 24752.96,31849.46"/>
    <poly id="102123506" type="building" color="255,230,230" fill="1" layer="2.00" shape="24654.43,31802.85 24674.00,31800.74 24685.22,31840.84 24679.71,31856.62 24647.07,31875.86 24638.08,31864.03 24665.67,31844.85 24654.43,31802.85"/>
    <poly id="102123507" type="building" color="255,230,230" fill="1" layer="2.00" shape="24610.88,31915.28 24630.30,31954.03 24619.79,31974.27 24582.60,31983.50 24578.65,31969.73 24610.11,31958.03 24595.85,31927.39 24610.88,31915.28"/>
    <poly id="102123508" type="building" color="255,230,230" fill="1" layer="2.00" shape="24767.17,32142.25 24746.98,32145.63 24756.85,32178.21 24750.96,32214.74 24768.05,32216.42 24774.66,32187.42 24771.95,32171.75 24767.17,32142.25"/>
    <poly id="102123509" type="building" color="255,230,230" fill="1" layer="2.00" shape="24801.17,32130.54 24784.79,32135.13 24790.87,32168.38 24797.95,32178.98 24819.09,32203.25 24832.26,32194.28 24811.05,32164.36 24801.17,32130.54"/>
    <poly id="102123510" type="building" color="255,230,230" fill="1" layer="2.00" shape="24677.18,32122.58 24657.33,32101.43 24646.48,32092.77 24620.42,32080.49 24609.18,32092.58 24642.26,32110.42 24665.29,32133.40 24677.18,32122.58"/>
    <poly id="102123511" type="building" color="255,230,230" fill="1" layer="2.00" shape="24562.28,32028.38 24536.45,32036.23 24526.00,32060.88 24510.12,32054.77 24523.68,32025.07 24531.81,32018.06 24560.82,32011.42 24562.28,32028.38"/>
    <poly id="102123512" type="building" color="255,230,230" fill="1" layer="2.00" shape="24554.88,31991.38 24550.91,31976.34 24525.04,31980.42 24502.11,31964.97 24488.34,31977.08 24515.76,31997.50 24554.88,31991.38"/>
    <poly id="102123513" type="building" color="255,230,230" fill="1" layer="2.00" shape="24570.26,31902.55 24554.98,31892.68 24574.86,31863.53 24583.95,31830.10 24599.78,31833.05 24591.36,31869.61 24570.26,31902.55"/>
    <poly id="102123514" type="building" color="255,230,230" fill="1" layer="2.00" shape="24645.86,31773.41 24664.15,31770.05 24657.42,31735.56 24647.84,31727.50 24621.19,31719.00 24614.41,31733.55 24638.58,31746.46 24645.86,31773.41"/>
    <poly id="102123515" type="building" color="255,230,230" fill="1" layer="2.00" shape="24697.39,31694.85 24709.54,31706.65 24694.00,31728.20 24702.54,31755.76 24683.63,31760.39 24676.33,31730.92 24678.09,31720.22 24697.39,31694.85"/>
    <poly id="102123516" type="building" color="255,230,230" fill="1" layer="2.00" shape="24779.28,31777.49 24771.17,31786.38 24795.50,31812.50 24805.71,31820.55 24834.93,31832.15 24839.83,31819.52 24809.29,31802.90 24784.33,31776.17 24779.28,31777.49"/>
    <poly id="102123517" type="building" color="255,230,230" fill="1" layer="2.00" shape="24922.40,31851.87 24940.16,31857.31 24924.71,31887.66 24888.21,31901.30 24884.25,31886.89 24910.67,31875.89 24922.40,31851.87"/>
    <poly id="102123518" type="building" color="255,230,230" fill="1" layer="2.00" shape="24960.05,31935.65 24933.26,31915.85 24896.65,31920.06 24898.13,31937.65 24925.89,31932.91 24948.80,31946.48 24960.05,31935.65"/>
    <poly id="102123519" type="building" color="255,230,230" fill="1" layer="2.00" shape="24879.38,32009.53 24894.64,32016.89 24874.14,32047.31 24866.95,32080.72 24849.23,32079.04 24854.56,32048.17 24863.24,32033.62 24879.38,32009.53"/>
    <poly id="10711280" type="landuse" color="194,194,130" fill="1" layer="-4.00" shape="15095.46,30929.97 15114.87,30890.94 15124.00,30825.15 15127.43,30761.80 15110.81,30709.67 15044.84,30623.89 15058.97,30609.17 15083.92,30597.67 15115.06,30596.42 15148.89,30602.01 15193.37,30629.86 15515.40,30846.15 15545.31,30884.50 15553.68,30931.73 15558.56,31251.82 15552.22,31298.37 15525.11,31344.32 15487.38,31372.33 15442.54,31384.94 15402.63,31376.84 15358.20,31353.30 15336.25,31327.75 15095.46,30929.97"/>
    <poly id="10711835" type="landuse" color="194,194,130" fill="1" layer="-4.00" shape="15631.63,31075.34 15628.56,31036.65 15627.36,31009.99 15613.88,30970.57 15609.95,30932.75 15609.47,30894.88 15617.48,30774.30 15614.12,30713.23 15621.66,30693.34 15650.04,30678.37 15705.85,30712.95 15837.07,30826.63 15880.11,30876.87 15905.07,30935.94 15907.68,31075.32 15897.22,31276.84 15821.95,31346.63 15731.33,31504.38 15710.01,31529.61 15682.55,31548.88 15643.91,31571.74 15550.77,31665.85 15429.37,31438.46 15508.88,31430.58 15553.72,31418.83 15596.50,31379.57 15622.56,31318.14 15634.77,31256.89 15632.47,31142.45 15631.63,31075.34"/>
    <poly id="10712319" type="water" color="181,209,209" fill="1" layer="-10.00" shape="15359.35,31038.93 15366.20,31043.40 15372.34,31051.20 15374.76,31063.20 15378.66,31073.53 15380.24,31079.32 15384.89,31088.80 15387.31,31100.80 15388.14,31106.61 15390.92,31117.77 15395.97,31129.32 15394.95,31137.63 15397.77,31151.70 15402.10,31166.16 15406.75,31175.65 15415.56,31185.08 15418.33,31195.84 15421.11,31206.59 15425.30,31209.44 15429.77,31204.82 15428.54,31197.37 15423.09,31183.75 15423.26,31167.15 15420.39,31149.34 15412.95,31128.69 15404.04,31110.14 15397.00,31090.72 15388.06,31070.92 15388.30,31059.30 15388.85,31042.70 15398.40,31021.01 15435.75,30958.73 15463.42,30907.34 15467.04,30895.27 15467.66,30884.47 15465.33,30878.29 15449.80,30875.16 15385.22,30873.89 15373.90,30874.87 15361.13,30880.00 15354.37,30882.99 15347.58,30883.49 15338.53,30884.44 15331.06,30891.17 15322.47,30897.91 15308.24,30907.63 15295.09,30912.78 15288.67,30913.27 15285.71,30917.46 15282.76,30923.72 15279.44,30929.98 15283.33,30939.06 15287.28,30952.70 15287.43,30964.73 15286.85,30978.43 15291.48,30987.08 15306.04,31003.08 15328.14,31019.40 15341.82,31025.86 15359.35,31038.93"/>
    <poly id="10712320" type="water" color="181,209,209" fill="1" layer="-10.00" shape="15183.61,30906.61 15184.62,30880.10 15186.87,30868.17 15195.15,30856.84 15205.17,30840.86 15210.38,30824.28 15208.36,30807.12 15194.37,30794.74 15182.95,30794.89 15168.48,30791.77 15154.41,30785.37 15151.62,30793.23 15144.20,30814.33 15140.83,30836.26 15141.03,30852.65 15137.71,30864.13 15127.50,30881.04 15119.78,30900.96 15123.39,30912.35 15133.55,30920.23 15146.83,30927.31 15154.83,30928.35 15168.66,30925.13 15176.21,30917.79 15183.61,30906.61"/>
    <poly id="10712322" type="water" color="181,209,209" fill="1" layer="-10.00" shape="15516.28,31516.38 15530.26,31517.47 15537.71,31516.28 15542.59,31508.01 15536.95,31494.94 15537.78,31482.33 15543.10,31469.13 15553.32,31449.28 15560.12,31434.96 15557.54,31427.88 15550.09,31429.61 15538.72,31437.42 15528.82,31442.48 15516.36,31442.63 15500.43,31443.37 15484.07,31450.70 15476.69,31458.46 15480.78,31466.08 15487.90,31478.03 15492.35,31491.37 15492.74,31502.33 15494.27,31509.15 15506.22,31508.91 15516.28,31516.38"/>
    <poly id="10712324" type="water" color="181,209,209" fill="1" layer="-10.00" shape="15643.65,31431.85 15629.45,31451.77 15654.55,31476.12 15676.99,31438.62 15686.31,31407.74 15714.01,31386.14 15718.78,31378.52 15717.80,31364.72 15719.33,31357.58 15729.29,31343.65 15742.07,31329.25 15746.84,31322.07 15746.33,31313.61 15740.93,31302.99 15727.75,31285.79 15725.13,31271.14 15728.62,31257.73 15733.38,31250.11 15744.51,31232.60 15749.12,31212.51 15751.40,31200.01 15760.93,31184.31 15765.24,31172.68 15762.22,31158.92 15755.73,31158.10 15749.65,31158.18 15741.93,31156.05 15726.52,31154.47 15717.62,31156.35 15707.22,31167.61 15669.67,31171.69 15667.45,31191.02 15698.56,31200.58 15713.86,31212.50 15714.49,31229.86 15707.82,31247.30 15696.75,31269.26 15687.12,31277.39 15678.26,31281.07 15673.44,31284.24 15668.30,31295.44 15666.47,31310.60 15665.87,31327.52 15660.34,31338.90 15649.11,31348.21 15648.25,31358.34 15654.04,31365.11 15663.43,31373.40 15648.62,31395.08 15643.65,31431.85"/>
    <poly id="10712325" type="water" color="181,209,209" fill="1" layer="-10.00" shape="15392.58,31329.11 15400.93,31323.80 15410.93,31323.68 15421.58,31333.37 15429.65,31347.72 15435.41,31354.13 15447.47,31359.52 15456.53,31360.46 15469.38,31354.53 15483.39,31343.70 15487.77,31338.76 15497.46,31337.75 15508.33,31334.51 15507.81,31325.63 15501.68,31319.94 15502.22,31298.62 15502.88,31286.62 15510.44,31276.76 15523.64,31266.82 15526.65,31248.58 15522.41,31232.65 15515.39,31220.31 15504.88,31220.44 15500.12,31227.16 15503.47,31236.44 15503.15,31243.99 15493.16,31252.56 15486.29,31252.65 15467.70,31252.44 15452.29,31248.19 15442.41,31233.65 15438.31,31228.82 15432.27,31230.68 15432.36,31238.22 15439.78,31249.23 15442.34,31260.30 15439.32,31277.21 15427.31,31286.24 15420.43,31284.99 15407.76,31274.49 15405.99,31261.64 15400.21,31251.50 15393.74,31251.58 15388.94,31255.19 15390.35,31271.16 15394.49,31279.10 15394.59,31286.65 15389.47,31297.37 15381.97,31312.11 15379.66,31321.03 15381.75,31326.33 15385.82,31328.49 15392.58,31329.11"/>
    <poly id="10712326" type="water" color="181,209,209" fill="1" layer="-10.00" shape="15768.80,30878.71 15775.18,30894.47 15777.44,30910.85 15778.88,30943.63 15780.28,30973.60 15788.80,30996.12 15796.18,31009.61 15805.23,31033.81 15809.06,31052.43 15809.81,31070.52 15805.51,31097.16 15804.67,31112.45 15804.27,31121.50 15810.01,31128.22 15821.98,31137.69 15831.92,31151.14 15837.27,31166.91 15841.65,31187.79 15842.30,31198.53 15837.28,31208.21 15833.80,31219.00 15830.40,31234.88 15817.83,31259.36 15806.25,31279.87 15799.21,31292.96 15798.29,31302.03 15809.25,31314.34 15818.05,31318.18 15841.19,31315.64 15847.85,31313.29 15861.53,31295.02 15869.50,31273.42 15871.22,31246.81 15869.23,31211.20 15866.62,31167.11 15875.67,31149.46 15880.63,31134.69 15878.38,31119.45 15872.34,31089.54 15872.46,31057.86 15878.01,31048.74 15879.95,31039.10 15877.19,31024.42 15873.39,31008.64 15872.26,30960.00 15870.07,30907.98 15861.60,30889.42 15846.38,30866.43 15828.17,30850.81 15779.13,30799.38 15773.91,30793.22 15763.45,30780.35 15666.25,30706.90 15658.55,30708.69 15655.11,30721.17 15651.73,30738.75 15658.20,30762.43 15662.47,30774.26 15674.97,30786.55 15688.54,30800.52 15705.66,30811.05 15724.95,30830.61 15747.92,30855.77 15768.80,30878.71"/>
    <poly id="10712756" type="water" color="181,209,209" fill="1" layer="-10.00" shape="16175.15,31252.19 16131.36,31232.63 16099.71,31225.40 16076.02,31228.48 16052.47,31231.53 16034.92,31241.46 16010.56,31261.87 15993.31,31296.07 15982.65,31322.65 15983.09,31357.86 15979.78,31389.06 15980.08,31413.42 15971.68,31482.75 16026.20,31454.79 16131.75,31394.36 16154.21,31362.25 16174.90,31356.45 16176.15,31347.95 16177.51,31338.74 16138.56,31298.78 16175.15,31252.19"/>
    <poly id="125294197" type="building" color="255,230,230" fill="1" layer="2.00" shape="17557.10,32286.89 17558.11,32306.93 17609.17,32304.38 17608.16,32284.34 17594.70,32285.00 17594.48,32280.80 17609.02,32280.07 17608.46,32268.90 17573.91,32270.63 17574.69,32286.00 17557.10,32286.89"/>
    <poly id="125294198" type="building" color="255,230,230" fill="1" layer="2.00" shape="17562.11,32393.67 17562.76,32411.89 17614.48,32410.05 17614.81,32419.21 17563.08,32421.03 17563.71,32438.72 17632.57,32436.28 17632.31,32429.25 17628.89,32429.37 17627.40,32387.37 17610.26,32387.98 17610.41,32391.95 17562.11,32393.67"/>
    <poly id="125294199" type="building" color="255,230,230" fill="1" layer="2.00" shape="17813.04,32453.78 17813.24,32458.01 17819.95,32457.70 17819.75,32453.47 17831.92,32452.92 17830.28,32417.01 17781.39,32419.23 17783.03,32455.14 17791.63,32454.75 17791.83,32458.98 17797.63,32458.72 17797.44,32454.49 17813.04,32453.78"/>
    <poly id="125294200" type="building" color="255,230,230" fill="1" layer="2.00" shape="17943.36,32521.81 17960.57,32521.26 17960.16,32508.87 17942.96,32509.42 17943.36,32521.81"/>
    <poly id="125294201" type="building" color="255,230,230" fill="1" layer="2.00" shape="17839.47,32517.55 17869.01,32516.58 17868.83,32510.97 17839.29,32511.93 17839.47,32517.55"/>
    <poly id="125294202" type="building" color="255,230,230" fill="1" layer="2.00" shape="17612.13,32464.66 17568.26,32466.39 17571.06,32536.57 17614.93,32534.84 17612.13,32464.66"/>
    <poly id="125294203" type="building" color="255,230,230" fill="1" layer="2.00" shape="17836.84,32528.76 17869.50,32527.70 17869.31,32522.01 17836.66,32523.06 17836.84,32528.76"/>
    <poly id="125294204" type="building" color="255,230,230" fill="1" layer="2.00" shape="17822.26,32529.39 17826.54,32529.30 17826.39,32522.17 17822.12,32522.27 17822.26,32529.39"/>
    <poly id="125294205" type="building" color="255,230,230" fill="1" layer="2.00" shape="17785.13,32108.84 17788.31,32179.01 17812.88,32177.91 17809.69,32107.74 17785.13,32108.84"/>
    <poly id="125294206" type="building" color="255,230,230" fill="1" layer="2.00" shape="17839.01,32506.70 17868.29,32505.76 17868.10,32500.00 17838.82,32500.95 17839.01,32506.70"/>
    <poly id="125294207" type="building" color="255,230,230" fill="1" layer="2.00" shape="17837.73,32366.34 17849.85,32365.86 17849.11,32347.38 17836.99,32347.86 17837.73,32366.34"/>
    <poly id="125294208" type="building" color="255,230,230" fill="1" layer="2.00" shape="17755.83,32529.96 17786.78,32529.18 17786.46,32516.71 17755.51,32517.49 17755.83,32529.96"/>
    <poly id="125294209" type="building" color="255,230,230" fill="1" layer="2.00" shape="17821.15,32177.46 17845.40,32176.71 17843.27,32107.92 17819.02,32108.67 17821.15,32177.46"/>
    <poly id="125294210" type="building" color="255,230,230" fill="1" layer="2.00" shape="17795.57,32528.61 17812.39,32528.14 17812.03,32515.47 17795.21,32515.94 17795.57,32528.61"/>
    <poly id="125294211" type="building" color="255,230,230" fill="1" layer="2.00" shape="17613.94,32338.63 17614.68,32356.83 17672.87,32354.48 17672.13,32336.28 17613.94,32338.63"/>
    <poly id="125294212" type="building" color="255,230,230" fill="1" layer="2.00" shape="17663.19,32422.25 17663.70,32434.69 17676.07,32434.19 17675.58,32421.76 17663.19,32422.25"/>
    <poly id="125294213" type="building" color="255,230,230" fill="1" layer="2.00" shape="17662.48,32411.15 17675.97,32410.61 17675.00,32386.49 17661.50,32387.03 17662.48,32411.15"/>
    <poly id="125294214" type="building" color="255,230,230" fill="1" layer="2.00" shape="17715.41,32519.99 17715.92,32531.12 17752.07,32529.47 17751.56,32518.36 17715.41,32519.99"/>
    <poly id="125294215" type="building" color="255,230,230" fill="1" layer="2.00" shape="17929.96,32220.90 17930.93,32242.73 17966.44,32241.17 17965.48,32219.35 17929.96,32220.90"/>
    <poly id="125294216" type="building" color="255,230,230" fill="1" layer="2.00" shape="17616.14,32290.32 17610.72,32290.54 17611.39,32307.03 17616.81,32306.81 17616.14,32290.32"/>
    <poly id="125294217" type="building" color="255,230,230" fill="1" layer="2.00" shape="17875.37,32529.13 17881.00,32528.94 17880.71,32520.17 17875.08,32520.35 17875.37,32529.13"/>
    <poly id="125294218" type="building" color="255,230,230" fill="1" layer="2.00" shape="17613.12,32312.25 17613.95,32332.80 17662.55,32330.83 17661.72,32310.28 17613.12,32312.25"/>
    <poly id="125294219" type="building" color="255,230,230" fill="1" layer="2.00" shape="17558.10,32315.85 17558.88,32335.74 17607.38,32333.87 17606.60,32313.97 17558.10,32315.85"/>
    <poly id="125294220" type="building" color="255,230,230" fill="1" layer="2.00" shape="17615.34,32366.39 17616.09,32384.58 17673.79,32382.25 17673.05,32364.06 17615.34,32366.39"/>
    <poly id="125294222" type="building" color="255,230,230" fill="1" layer="2.00" shape="17883.19,32524.46 17914.65,32523.44 17914.25,32511.26 17882.80,32512.28 17883.19,32524.46"/>
    <poly id="125294223" type="building" color="255,230,230" fill="1" layer="2.00" shape="17666.57,32330.13 17671.30,32329.94 17670.64,32313.58 17665.91,32313.77 17666.57,32330.13"/>
    <poly id="125294224" type="building" color="255,230,230" fill="1" layer="2.00" shape="17942.52,32355.49 17946.90,32475.84 17977.50,32474.73 17973.13,32354.39 17942.52,32355.49"/>
    <poly id="125294226" type="building" color="255,230,230" fill="1" layer="2.00" shape="17673.55,32459.18 17647.90,32460.31 17648.02,32463.11 17629.21,32463.93 17632.49,32537.85 17672.64,32536.08 17676.75,32531.13 17673.55,32459.18"/>
    <poly id="125294228" type="building" color="255,230,230" fill="1" layer="2.00" shape="17838.14,32391.56 17840.96,32453.12 17865.30,32452.01 17865.84,32463.97 17873.74,32463.62 17873.19,32451.65 17882.00,32451.25 17879.18,32389.70 17838.14,32391.56"/>
    <poly id="125294230" type="building" color="255,230,230" fill="1" layer="2.00" shape="17560.03,32341.45 17560.84,32360.38 17572.81,32359.86 17573.21,32369.18 17561.24,32369.69 17561.95,32386.63 17610.30,32384.59 17608.38,32339.41 17560.03,32341.45"/>
    <poly id="149778577" type="amenity" color="237,199,199" fill="1" layer="2.00" shape="22088.67,25490.62 22085.68,25489.31 22085.66,25487.43 22088.21,25486.40 22091.34,25486.83 22096.36,25488.99 22100.08,25493.98 22102.59,25500.68 22101.02,25504.73 22097.65,25506.47 22093.72,25505.35 22092.45,25501.95 22092.40,25497.65 22091.95,25493.54 22088.67,25490.62"/>
    <poly id="149778577#1" type="leisure" color="207,245,201" fill="1" layer="0.00" shape="22088.67,25490.62 22085.68,25489.31 22085.66,25487.43 22088.21,25486.40 22091.34,25486.83 22096.36,25488.99 22100.08,25493.98 22102.59,25500.68 22101.02,25504.73 22097.65,25506.47 22093.72,25505.35 22092.45,25501.95 22092.40,25497.65 22091.95,25493.54 22088.67,25490.62"/>
    <poly id="149778577#2" type="sport" color="79,230,125" fill="1" layer="2.00" shape="22088.67,25490.62 22085.68,25489.31 22085.66,25487.43 22088.21,25486.40 22091.34,25486.83 22096.36,25488.99 22100.08,25493.98 22102.59,25500.68 22101.02,25504.73 22097.65,25506.47 22093.72,25505.35 22092.45,25501.95 22092.40,25497.65 22091.95,25493.54 22088.67,25490.62"/>
    <poly id="149779739" type="aeroway" color="grey" fill="1" layer="1.00" shape="23096.81,25198.73 23097.43,25193.86 23099.26,25190.33 23102.72,25187.10 23105.42,25185.79 23111.58,25185.24 23116.66,25187.18 23120.37,25190.85 23122.25,25195.48 23122.37,25199.52 23121.87,25201.75 23119.08,25206.52 23114.53,25209.69 23109.08,25210.64 23104.59,25209.63 23101.71,25207.95 23098.19,25203.69 23096.81,25198.73"/>
    <poly id="149780541" type="building" color="255,230,230" fill="1" layer="2.00" shape="23513.13,25518.95 23541.92,25532.66 23538.01,25540.77 23509.23,25527.06 23513.13,25518.95"/>
    <poly id="149780751" type="leisure" color="207,245,201" fill="1" layer="0.00" shape="23521.61,24988.40 23532.97,25079.21 23532.28,25088.63 23526.88,25101.69 23519.40,25109.84 23509.87,25114.99 23500.43,25117.52 23491.35,25117.44 23483.21,25114.58 23476.66,25110.63 23468.90,25104.98 23463.39,25097.25 23461.24,25087.67 23450.51,25005.20 23449.87,24996.33 23451.55,24988.96 23454.55,24980.66 23458.69,24974.89 23466.72,24967.53 23475.18,24963.20 23487.06,24961.45 23496.42,24962.60 23505.39,24965.99 23511.94,24971.03 23516.88,24976.89 23521.61,24988.40"/>
    <poly id="149781343" type="amenity" color="237,199,199" fill="1" layer="2.00" shape="23425.88,25217.96 23421.78,25214.24 23432.73,25202.82 23436.89,25202.36 23476.49,25197.98 23475.13,25187.05 23476.89,25185.33 23508.04,25181.03 23538.73,25176.80 23541.72,25178.10 23542.96,25190.47 23588.61,25184.81 23599.51,25191.95 23599.56,25195.98 23603.62,25195.40 23605.05,25202.37 23600.58,25203.04 23599.95,25206.20 23604.57,25208.03 23601.51,25212.99 23605.01,25214.53 23612.57,25220.85 23615.61,25215.78 23627.13,25215.57 23676.81,25253.45 23675.61,25256.76 23680.89,25256.36 23680.44,25263.35 23676.25,25264.56 23674.42,25270.24 23681.46,25275.36 23697.35,25286.91 23699.88,25283.30 23702.34,25284.89 23703.74,25278.23 23708.49,25278.36 23709.36,25284.00 23711.53,25283.97 23711.50,25281.02 23760.36,25318.36 23760.15,25323.48 23765.02,25322.88 23765.90,25329.60 23761.16,25330.27 23761.35,25333.42 23727.89,25375.86 23724.98,25380.74 23722.14,25380.16 23721.94,25385.82 23715.72,25385.89 23715.67,25381.58 23712.83,25383.31 23707.53,25380.06 23708.17,25377.98 23669.66,25347.50 23664.49,25345.15 23665.01,25342.72 23660.02,25342.70 23659.12,25336.52 23664.53,25335.38 23662.45,25332.52 23691.80,25293.39 23676.05,25281.81 23668.70,25276.41 23639.12,25314.70 23636.81,25314.54 23636.20,25319.57 23629.72,25320.46 23630.19,25314.26 23627.78,25316.17 23622.32,25312.74 23618.00,25318.61 23613.54,25324.69 23616.93,25326.61 23615.63,25330.93 23621.46,25331.05 23621.80,25336.69 23616.67,25338.10 23616.99,25341.86 23583.28,25385.39 23579.36,25385.09 23578.37,25392.63 23572.15,25392.97 23572.63,25387.59 23568.72,25390.13 23563.95,25385.81 23552.61,25387.29 23553.21,25392.39 23514.84,25396.35 23513.98,25392.32 23503.83,25393.33 23497.28,25398.71 23498.14,25402.74 23490.71,25404.25 23489.18,25399.34 23485.79,25400.00 23481.58,25397.02 23482.35,25394.32 23444.81,25366.05 23438.96,25362.81 23439.59,25360.20 23434.87,25360.18 23434.39,25354.61 23442.10,25353.90 23437.87,25351.61 23440.93,25346.11 23428.64,25336.30 23423.10,25338.06 23422.53,25346.33 23416.04,25346.68 23415.54,25338.96 23412.75,25343.22 23408.24,25339.31 23364.55,25305.40 23365.60,25302.97 23360.61,25303.22 23360.00,25297.03 23367.02,25296.42 23362.51,25293.31 23400.75,25243.01 23402.93,25244.60 23402.86,25239.48 23409.35,25238.60 23409.94,25242.36 23417.01,25245.51 23423.55,25237.48 23428.74,25231.11 23423.69,25228.29 23425.96,25224.95 23419.60,25226.19 23419.12,25219.12 23425.88,25217.96"/>