 <configuration>
     <input>
       <net-file value="map.net.xml"/>

     </input>
 </configuration>
