<routes>
        <vType id="typeWE" accel="0.8" decel="4.5" sigma="0.5" length="5" minGap="2.5" maxSpeed="16.67" guiShape="passenger"/>
        <route id="right" edges="51o 1i 2o 52i" />
        <route id="left" edges="52o 2i 1o 51i" />
        <route id="down" edges="54o 4i 3o 53i" />
        
    <vehicle id="down_left_0" type="typeWE" route="down_left" depart="2" />
    <vehicle id="down_left_1" type="typeWE" route="down_left" depart="15" />
    <vehicle id="left_2" type="typeWE" route="left" depart="22" />
    <vehicle id="right_3" type="typeWE" route="right" depart="24" />
    <vehicle id="right_4" type="typeWE" route="right" depart="28" />
    <vehicle id="left_5" type="typeWE" route="left" depart="34" />
    <vehicle id="right_6" type="typeWE" route="right" depart="37" />
    <vehicle id="left_7" type="typeWE" route="left" depart="37" />
    <vehicle id="down_left_8" type="typeWE" route="down_left" depart="47" />
    <vehicle id="down_left_9" type="typeWE" route="down_left" depart="50" />
    <vehicle id="right_10" type="typeWE" route="right" depart="51" />
    <vehicle id="right_11" type="typeWE" route="right" depart="52" />
    <vehicle id="down_left_12" type="typeWE" route="down_left" depart="52" />
    <vehicle id="right_13" type="typeWE" route="right" depart="57" />
    <vehicle id="right_14" type="typeWE" route="right" depart="58" />
    <vehicle id="left_15" type="typeWE" route="left" depart="59" />
    <vehicle id="right_16" type="typeWE" route="right" depart="64" />
    <vehicle id="left_17" type="typeWE" route="left" depart="65" />
    <vehicle id="right_18" type="typeWE" route="right" depart="67" />
    <vehicle id="down_left_19" type="typeWE" route="down_left" depart="69" />
    <vehicle id="left_20" type="typeWE" route="left" depart="70" />
    <vehicle id="right_21" type="typeWE" route="right" depart="71" />
    <vehicle id="right_22" type="typeWE" route="right" depart="76" />
    <vehicle id="down_left_23" type="typeWE" route="down_left" depart="76" />
    <vehicle id="right_24" type="typeWE" route="right" depart="81" />
    <vehicle id="right_25" type="typeWE" route="right" depart="82" />
    <vehicle id="down_left_26" type="typeWE" route="down_left" depart="84" />
    <vehicle id="right_27" type="typeWE" route="right" depart="85" />
    <vehicle id="left_28" type="typeWE" route="left" depart="91" />
    <vehicle id="right_29" type="typeWE" route="right" depart="103" />
    <vehicle id="right_30" type="typeWE" route="right" depart="106" />
    <vehicle id="left_31" type="typeWE" route="left" depart="109" />
    <vehicle id="right_32" type="typeWE" route="right" depart="111" />
    <vehicle id="down_left_33" type="typeWE" route="down_left" depart="113" />
    <vehicle id="right_34" type="typeWE" route="right" depart="121" />
    <vehicle id="right_35" type="typeWE" route="right" depart="125" />
    <vehicle id="left_36" type="typeWE" route="left" depart="132" />
    <vehicle id="right_37" type="typeWE" route="right" depart="133" />
    <vehicle id="left_38" type="typeWE" route="left" depart="133" />
    <vehicle id="down_left_39" type="typeWE" route="down_left" depart="133" />
    <vehicle id="left_40" type="typeWE" route="left" depart="148" />
    <vehicle id="right_41" type="typeWE" route="right" depart="149" />
    <vehicle id="left_42" type="typeWE" route="left" depart="149" />
    <vehicle id="left_43" type="typeWE" route="left" depart="154" />
    <vehicle id="down_left_44" type="typeWE" route="down_left" depart="154" />
    <vehicle id="left_45" type="typeWE" route="left" depart="156" />
    <vehicle id="left_46" type="typeWE" route="left" depart="162" />
    <vehicle id="down_left_47" type="typeWE" route="down_left" depart="169" />
    <vehicle id="right_48" type="typeWE" route="right" depart="171" />
    <vehicle id="right_49" type="typeWE" route="right" depart="174" />
    <vehicle id="left_50" type="typeWE" route="left" depart="176" />
    <vehicle id="right_51" type="typeWE" route="right" depart="179" />
    <vehicle id="right_52" type="typeWE" route="right" depart="180" />
    <vehicle id="right_53" type="typeWE" route="right" depart="184" />
    <vehicle id="down_left_54" type="typeWE" route="down_left" depart="186" />
    <vehicle id="down_left_55" type="typeWE" route="down_left" depart="187" />
    <vehicle id="left_56" type="typeWE" route="left" depart="190" />
    <vehicle id="right_57" type="typeWE" route="right" depart="193" />
    <vehicle id="right_58" type="typeWE" route="right" depart="196" />
    <vehicle id="down_left_59" type="typeWE" route="down_left" depart="197" />
    <vehicle id="right_60" type="typeWE" route="right" depart="204" />
    <vehicle id="down_left_61" type="typeWE" route="down_left" depart="209" />
    <vehicle id="down_left_62" type="typeWE" route="down_left" depart="215" />
    <vehicle id="left_63" type="typeWE" route="left" depart="228" />
    <vehicle id="down_left_64" type="typeWE" route="down_left" depart="228" />
    <vehicle id="left_65" type="typeWE" route="left" depart="238" />
    <vehicle id="left_66" type="typeWE" route="left" depart="241" />
    <vehicle id="right_67" type="typeWE" route="right" depart="247" />
    <vehicle id="down_left_68" type="typeWE" route="down_left" depart="257" />
    <vehicle id="left_69" type="typeWE" route="left" depart="264" />
    <vehicle id="left_70" type="typeWE" route="left" depart="272" />
    <vehicle id="down_left_71" type="typeWE" route="down_left" depart="273" />
    <vehicle id="right_72" type="typeWE" route="right" depart="276" />
    <vehicle id="right_73" type="typeWE" route="right" depart="280" />
    <vehicle id="down_left_74" type="typeWE" route="down_left" depart="281" />
    <vehicle id="left_75" type="typeWE" route="left" depart="282" />
    <vehicle id="left_76" type="typeWE" route="left" depart="290" />
    <vehicle id="left_77" type="typeWE" route="left" depart="294" />
    <vehicle id="down_left_78" type="typeWE" route="down_left" depart="297" />
</routes>
