<?xml version="1.0" encoding="UTF-8"?>

<!-- generated on Tue Dec  9 23:35:36 2014 by SUMO duarouter Version 0.19.0
<?xml version="1.0" encoding="UTF-8"?>

<configuration xmlns:xsi="http://www.w3.org/2001/XMLSchema-instance" xsi:noNamespaceSchemaLocation="http://sumo-sim.org/xsd/duarouterConfiguration.xsd">

    <input>
        <net-file value="map.net.xml"/>
        <trip-files value="map.trips.xml"/>
    </input>

    <output>
        <output-file value="map.rou.xml"/>
    </output>

    <processing>
        <ignore-errors value="true"/>
    </processing>

    <time>
        <begin value="0"/>
        <end value="50.0"/>
    </time>

    <report>
        <no-step-log value="true"/>
    </report>

</configuration>
-->

<routes xmlns:xsi="http://www.w3.org/2001/XMLSchema-instance" xsi:noNamespaceSchemaLocation="http://sumo-sim.org/xsd/routes_file.xsd">
    <vehicle id="0" depart="0.00">
        <route edges="10755724#0 10755724#0-AddedOffRampEdge 10478098#0 10478098#1-AddedOnRampEdge 10478098#1 10478098#1-AddedOffRampEdge 10478098#2 10478098#3-AddedOnRampEdge 10478098#3 10478219 10478271#2-AddedOnRampEdge 10478271#2 10478271#3 10478271#4-AddedOnRampEdge 10478271#4 233936815#5-AddedOnRampEdge 233936815#5 233936815#5-AddedOffRampEdge 233936815#6 233936815#7-AddedOnRampEdge 233936815#7 233936815#7-AddedOffRampEdge 233936815#8 233936815#9-AddedOnRampEdge 233936815#9 233936815#9-AddedOffRampEdge 222841292#1 222841292#0-AddedOnRampEdge 222841292#0 222841297 -222840476 -222841291#1 222841287 -222767225#15 -222767225#14 -222767225#13 -222767225#10 -222778212 -169238823#2"/>
    </vehicle>
    <vehicle id="2" depart="2.00">
        <route edges="167276187#0 167276187#0-AddedOffRampEdge 167276187#3 10611120#1-AddedOnRampEdge 10611120#1 10712818#0 10712818#0-AddedOffRampEdge 10712818#1 10712818#2 224277982 10712891#1 224277987 10712854#2 10712854#3 10712854#4-AddedOnRampEdge 10712854#4 4009554#5-AddedOnRampEdge 4009554#5 4009554#5-AddedOffRampEdge 4009554#6 4009554#6-AddedOffRampEdge 10610748 24287283#1-AddedOnRampEdge 24287283#1 10610751"/>
    </vehicle>
    <vehicle id="3" depart="3.00">
        <route edges="213572579 -213572579 -213572597#1 -213572597#0 213572614 99885709#3 99885709#4 99885709#5 99885709#6 99885709#7 99349234#0 99349234#1 99884586#5 99884586#6 99884586#7 99884586#0 99884586#1 99349236 10478199#4-AddedOnRampEdge 10478199#4 4009554#1-AddedOnRampEdge 4009554#1 4009554#1-AddedOffRampEdge 4009554#2 4009554#3 4009554#4 4009554#5-AddedOnRampEdge 4009554#5 4009554#5-AddedOffRampEdge 10478929 289639262#4-AddedOnRampEdge 289639262#4 289639260#3-AddedOnRampEdge 289639260#3 289639260#3-AddedOffRampEdge 289639260#4 289639260#5-AddedOnRampEdge 289639260#5 289639260#5-AddedOffRampEdge 289639260#8 289639260#9-AddedOnRampEdge 289639260#9 289639260#9-AddedOffRampEdge 289639260#10 25911279#5 25911279#6 25911279#8 25911279#9 25911279#11 25911279#12 25911279#2 25911282#0 25911282#1-AddedOnRampEdge 25911282#1 25911282#2 25911282#2-AddedOffRampEdge 24395355 24550173#0-AddedOnRampEdge 24550173#0 24550173#1 24550166#5 24550166#6 24550166#7 24550166#1 24550168#0 224343249#0 -224343194#5 -224343194#4 -224343194#3 -224343194#2 224343265#1 224343287 224344471#10 -228711976#4 -228711976#3 -228711976#2 -228711976#1 -228711976#0 24455440#4 -24455440#4"/>
    </vehicle>
    <vehicle id="4" depart="4.00">
        <route edges="228714455#3 -228714440#0 228714427#1 -200764164#0 25911282#2 25911282#2-AddedOffRampEdge 25911282#5 25911282#6-AddedOnRampEdge 25911282#6 25911282#6-AddedOffRampEdge 25911282#7 25911282#8-AddedOnRampEdge 25911282#8 25911282#8-AddedOffRampEdge 10610747 10610747-AddedOffRampEdge 24287283#0 24287283#1-AddedOnRampEdge 24287283#1 10610751 10610744#2-AddedOnRampEdge 10610744#2 10610744#2-AddedOffRampEdge 10610746 289639262#3-AddedOnRampEdge 289639262#3 289639262#4-AddedOnRampEdge 289639262#4 289639260#3-AddedOnRampEdge 289639260#3 289639260#3-AddedOffRampEdge 29009861#0 177014101#3 177014101#4 88376147#0 88376147#0-AddedOffRampEdge 88376147#1 88376147#2-AddedOnRampEdge 88376147#2 88376139#4 88376139#5 88376139#6 98885239#0 98885239#1 98885239#2 98885239#3 98885239#4 177014103#2 177014103#3 177014103#4 177014103#5 177014103#6 99045814#0 99045814#1 99045814#2 99045814#3-AddedOnRampEdge 99045814#3 99045814#4 99045814#5-AddedOnRampEdge 99045814#5 99045814#6 99045814#7-AddedOnRampEdge 99045814#7 99810855#4 99810855#5 100132672 100132666#2 100132666#3 100132666#4 100132666#5 224334750 224334736#0 224334744#0 -224334742#0 -224334704#3 -224334711"/>
    </vehicle>
    <vehicle id="5" depart="5.00">
        <route edges="86572097#0 86572097#0-AddedOffRampEdge 86572097#1 86572097#2-AddedOnRampEdge 86572097#2 86572097#2-AddedOffRampEdge 86572097#3 86572097#4-AddedOnRampEdge 86572097#4 86572097#4-AddedOffRampEdge 155309518#0 155309518#1 155309522 24382206#2 24382206#3 155309881#5 155309881#4-AddedOnRampEdge 155309881#4 155309881#3 155309881#2-AddedOnRampEdge 155309881#2 155309881#2-AddedOffRampEdge 155309881#1 155309881#0-AddedOnRampEdge 155309881#0 24382178#5 24382178#1 155304355 24382144#4 24381519 99892568#7 99892568#0 99892568#1 24381507#0 24381507#0-AddedOffRampEdge 24381507#1 99892440#7 99892440#0 99892440#1 99362371 99886973#7 99886973#0 99886973#1 99884540#0 99884540#1 99885766#8 99885766#1 99885766#2 99885766#3 99885766#4 24494640#0 24494640#1-AddedOnRampEdge 24494640#1 24494640#2 -99884557#2"/>
    </vehicle>
    <vehicle id="6" depart="6.00">
        <route edges="155309523 155309521#0 155309518#1 155309522 24382206#2 224334769#0 224334769#0-AddedOffRampEdge 224330169 224334769#2 224334769#3 224334769#5 224334769#7-AddedOnRampEdge 224334769#7 224334769#7-AddedOffRampEdge 224334731 224334769#9 224334769#10 224334769#11 224334740 224334769#13 224334733 224334769#15 224334769#16-AddedOnRampEdge 224334769#16 224334769#17-AddedOnRampEdge 224334769#17 224334769#18 224334769#19 224334769#20-AddedOnRampEdge 224334769#20 224334769#20-AddedOffRampEdge 224334769#21 99810903 10712883#1 10712883#2 10712880#1-AddedOnRampEdge 10712880#1 222721799+222721802#1 222721802#2 222721802#3 222721802#4 222721802#5-AddedOnRampEdge 222721802#5 222111133+222721802#6 222721802#7 222721802#8 222721802#8-AddedOffRampEdge 222721802#9 222111171#0 222780056 222111135#1 222111135#2+222111163#0 222111135#3 222111135#4 222111135#5-AddedOnRampEdge 222111135#5 222111135#6+222111168 222111135#8 222111135#9 222111135#10-AddedOnRampEdge 222111135#10 222111135#10-AddedOffRampEdge 222111135#11 222111135#12 222111135#13 87293214#1 87293214#2 87293214#2-AddedOffRampEdge 87293202#1 87293202#2-AddedOnRampEdge 87293202#2 223639445#0 223639445#1-AddedOnRampEdge 223639445#1 223639445#1-AddedOffRampEdge 223639445#2 223639445#3-AddedOnRampEdge 223639445#3 201575840#5 201575840#6 201575840#1 223639344#0 223639390#0 223639390#1 223639390#2 223639390#3 223639390#4 223639390#5 223639390#6 -201576145#1"/>
    </vehicle>
    <vehicle id="7" depart="7.00">
        <route edges="-87307146 -87306990#1 -87306990#0 -87307296#4 -87307296#3 87307092#0 87307092#1 87307092#2 87307252 87293192#4 87293192#5 222111180+87293192#7 87293192#8 87293192#9 87293192#10-AddedOnRampEdge 87293192#10 222111166+87293192#11 87293192#12 222111162#7 222111162#8 222111162#1 222111162#2 222111162#3 222111176#0 222111156+222111176#1 222111176#2 222111165+222111176#3 222111176#4 222111176#4-AddedOffRampEdge 222111176#5 222111176#5-AddedOffRampEdge 222111176#6 222111176#7+222721804 222111176#8 222721809#1 222721809#2 10712891#1 10712891#2 99810906#0 99810906#1-AddedOnRampEdge 99810906#1 99810906#1-AddedOffRampEdge 99810906#2 99810906#3 99810906#4-AddedOnRampEdge 99810906#4 99810906#4-AddedOffRampEdge 224334737 99810906#6-AddedOnRampEdge 99810906#6 99810906#7 99810906#7-AddedOffRampEdge 224334710 99810906#9-AddedOnRampEdge 99810906#9 99810906#9-AddedOffRampEdge 201173355#0 50338694#6-AddedOnRampEdge 50338694#6 224334749 50338694#8-AddedOnRampEdge 50338694#8 50338694#8-AddedOffRampEdge 224334717 50338694#10-AddedOnRampEdge 50338694#10 155403497#4-AddedOnRampEdge 155403497#4 50338677#0 50338677#0-AddedOffRampEdge 99892483 99892468#7 99892468#0 99892468#1 99892468#2 99892468#3 99884547#0 99884547#2 99884547#3 99886973#1 99884540#0 99884540#1"/>
    </vehicle>
    <vehicle id="8" depart="8.00">
        <route edges="289639260#2 289639260#3-AddedOnRampEdge 289639260#3 289639260#3-AddedOffRampEdge 289639260#4 289639260#5-AddedOnRampEdge 289639260#5 289639260#5-AddedOffRampEdge 135702096 100240909#0 100240909#1 100240909#2 100240909#3 100240909#4 100240909#5 100240909#6 100240909#7 199894456#0 199894458 199894472#3 199894472#4 199894472#5 199894482#0 199894482#0-AddedOffRampEdge 199894482#1 199894482#2 199894482#3-AddedOnRampEdge 199894482#3 199894459#1 199894459#2 199894459#3 199894470 199894477#0 199894477#1 199894477#2 199894477#3 199894477#5 199894468 50338696#7 50338696#0 50338696#1 199803977#0 199803977#0-AddedOffRampEdge 199803977#1 199803538#4 199803538#5 199803538#6 199802938#0 199802938#1-AddedOnRampEdge 199802938#1 199802938#1-AddedOffRampEdge 199802938#2 199802822#3 199802822#4 199802822#5 199816842#0 199816842#1-AddedOnRampEdge 199816842#1 199816842#2 174751315#2-AddedOnRampEdge 174751315#2 174751315#2-AddedOffRampEdge 174751332 174751307#1-AddedOnRampEdge 174751307#1 156663255#4-AddedOnRampEdge 156663255#4"/>
    </vehicle>
    <vehicle id="9" depart="9.00">
        <route edges="24455895#1 24381662#4 50338298#0 50338298#0-AddedOffRampEdge 135706894 25911282#1-AddedOnRampEdge 25911282#1 25911282#2 25911282#2-AddedOffRampEdge 24395355 24550173#0-AddedOnRampEdge 24550173#0 228714433 228714424#1 -228714424#3 228714427#0"/>
    </vehicle>
    <vehicle id="10" depart="10.00">
        <route edges="24550169#2-AddedOffRampEdge 24396168 25911282#6-AddedOnRampEdge 25911282#6 25911282#6-AddedOffRampEdge 25911282#7 25911282#8-AddedOnRampEdge 25911282#8 25911282#8-AddedOffRampEdge 25911282#9 25911282#10-AddedOnRampEdge 25911282#10 25911282#11 25911282#12 289639261#0 289639261#1 289639261#2 223517364#0 223517364#1-AddedOnRampEdge 223517364#1 223517364#1-AddedOffRampEdge 223517391#1 87293206#1 87293206#2 87293192#1 87293192#2-AddedOnRampEdge 87293192#2 87293192#3 87293192#4 87293192#5 222111180+87293192#7 87293192#8 222111140#0 -87307087#1 -87307087#0 87307144 87307048#7 87307048#8 87307048#1 87306956 87307240 87307016 87307081#0 87307081#1 87307081#2 87307081#3 87307081#4 87307050 87307169#0 87307169#1"/>
    </vehicle>
    <vehicle id="11" depart="11.00">
        <route edges="24495101 99892511#2 99358512 99892498#7 228713995#0 228713995#1 228714004#3 228713996#0"/>
    </vehicle>
    <vehicle id="14" depart="14.00">
        <route edges="222609138#7 222609138#8 222609133#0 222040707#4 222041366#5 222041366#3+222041371#0 222041366#2 222111171#0 222111171#1 222111162#5 222111162#6 222111162#7 222111162#8 222111162#1 222111145 222111151#1-AddedOnRampEdge 222111151#1 222111151#2+222723804#1 222111151#3 87307075#7 87307075#1 222723807#0 222723807#1 222723807#2+222723811 222723807#3 222723807#3-AddedOffRampEdge 222723807#4 89382514#0 89382498#0 89382498#1-AddedOnRampEdge 89382498#1 89382498#2 222773430#8 222773430#1 222773430#2 222773398#0 222773398#1 222773398#2+222773417 222773398#3 233936815#7-AddedOnRampEdge 233936815#7 233936815#7-AddedOffRampEdge 233936815#8 233936815#9-AddedOnRampEdge 233936815#9 233936815#9-AddedOffRampEdge 222841292#1 222841292#0-AddedOnRampEdge 222841292#0 222841297 -222840476 24291487#4 24291487#5 24291487#6 24291487#7 180610757#0 -24291487#11 -24291487#10 24291487#10"/>
    </vehicle>
    <vehicle id="15" depart="15.00">
        <route edges="99045802#3 99045802#4 99045802#5 99045802#6 99045802#7 105309212#1 224334752#1 224334759#0 224334759#0-AddedOffRampEdge 224334759#1 224334769#16-AddedOnRampEdge 224334769#16 224334769#17-AddedOnRampEdge 224334769#17 224334769#18 224334769#19 224334769#20-AddedOnRampEdge 224334769#20 224334769#20-AddedOffRampEdge 224334769#21 99810903 10712883#1 10712883#2 10712880#1-AddedOnRampEdge 10712880#1 222721799+222721802#1 222721802#2 222721802#3 222721802#4 222721802#5-AddedOnRampEdge 222721802#5 222111133+222721802#6 222721802#7 222721802#8 222721802#8-AddedOffRampEdge 222721802#9 222111171#0 222111171#1 222111162#5 222111162#6 222111162#7 222111162#8 222111162#1 222111145 222111151#1-AddedOnRampEdge 222111151#1 222111151#2+222723804#1 222111151#3 87307075#7 87307075#1 222723807#0 222723807#1 222723807#2+222723811 222723807#3 222723807#3-AddedOffRampEdge 222723807#4 89382514#0 89382498#0 89382498#1-AddedOnRampEdge 89382498#1 89382498#2 222773430#8 222773430#1 222773430#2 222773398#0 222773398#1 222773398#2+222773417 222773398#3 233936815#7-AddedOnRampEdge 233936815#7 233936815#7-AddedOffRampEdge 222725845 222725845-AddedOffRampEdge 222773424 -24271819 24185953#5 24185953#1 -24185995 24036881#3 24036958 168742724#3 168742724#4 28213354#0 28213354#1 28213354#2 168742725 180610738 -180610738"/>
    </vehicle>
    <vehicle id="17" depart="17.00">
        <route edges="-99045803#6 180112222#0 180112222#1 -180112226#0 -180112219#0 88376151#3 98885234#7 98885234#8 98885234#1 98885234#2 98885234#3 98885234#4 98885234#5 24490012#0 224334769#20-AddedOnRampEdge 224334769#20 224334769#20-AddedOffRampEdge 224334769#21 99810903 10712883#1 224278000 10712818#2 10712818#3 10712818#4-AddedOnRampEdge 10712818#4 10611120#3-AddedOnRampEdge 10611120#3 10611120#3-AddedOffRampEdge 10611120#4 10611120#5-AddedOnRampEdge 10611120#5 10611120#5-AddedOffRampEdge 10478960#0 10478960#0-AddedOffRampEdge 10478960#1 10478960#2-AddedOnRampEdge 10478960#2 10479198 10477951#2-AddedOnRampEdge 10477951#2 10477951#2-AddedOffRampEdge 10478073 10478098#3-AddedOnRampEdge 10478098#3 10478199#1 10478199#2-AddedOnRampEdge 10478199#2 10478199#2-AddedOffRampEdge 99349235 99884586#3 99884558 99885709#1 99885709#2 99885709#3 99350867#0 99350867#0-AddedOffRampEdge 99350867#1 99350867#2-AddedOnRampEdge 99350867#2 99886891#3 99886891#4 99886891#5 99353801 99886920#3 99886920#4 99886920#5 99885779#0 99885779#0-AddedOffRampEdge 99358513 99892498#3 99892498#4 99892498#5 99892498#6 99892498#7 228713995#0 228713992#0 228713990#0 228713990#1 228713987#1"/>
    </vehicle>
    <vehicle id="18" depart="18.00">
        <route edges="222609137 222632224#2 222637879#1 222637852#1 222637852#2 222637852#3 222637852#4 222637852#5 222637872#0 -222637843 222637871#1 222637871#3 222637871#3-AddedOffRampEdge 222637871#4 222637871#5 222603476#1 221976979#15 221976979#16-AddedOnRampEdge 221976979#16 221976979#17 221976979#17-AddedOffRampEdge 221976979#18 221976979#19 221976979#20 222603473#1 222721813#9 222721813#9-AddedOffRampEdge 222721813#10 222721813#11-AddedOnRampEdge 222721813#11 222721813#12 222721813#13 222721813#14 10611501 245394923#0 245394923#1-AddedOnRampEdge 245394923#1 289639262#1-AddedOnRampEdge 289639262#1 289639262#2 289639262#3-AddedOnRampEdge 289639262#3 289639262#4-AddedOnRampEdge 289639262#4 289639260#3-AddedOnRampEdge 289639260#3 289639260#3-AddedOffRampEdge 289639260#4 289639260#5-AddedOnRampEdge 289639260#5 289639260#5-AddedOffRampEdge 289639260#8 289639260#9-AddedOnRampEdge 289639260#9 289639260#9-AddedOffRampEdge 289639260#10 25911279#5 25911279#6 25911279#8 25911279#9 25911279#11 25911279#12 25911279#2 25911282#0 25911282#1-AddedOnRampEdge 25911282#1 25911282#2 25911282#2-AddedOffRampEdge 24395355 24550173#0-AddedOnRampEdge 24550173#0 24550173#1 24550166#5 24550166#6 24550166#7 24550166#1 24550168#0 224343249#0 -224343194#5 -224343194#4 -224343194#3 -224343194#2 224343265#1 224343287 224344471#10 -228711976#4 -228711976#3 -228711976#2 -228711976#1 -228711976#0 24455440#4 -24455440#4"/>
    </vehicle>
    <vehicle id="19" depart="19.00">
        <route edges="224324799#4 224324799#5-AddedOnRampEdge 224324799#5 224324836#1-AddedOnRampEdge 224324836#1 224324794#1 224324816#2-AddedOnRampEdge 224324816#2 224324843#0-AddedOnRampEdge 224324843#0 224324832#0 224324832#1 224320542#5-AddedOnRampEdge 224320542#5 224320542#6 224320542#7 224320542#8 224324854 224324839#1-AddedOnRampEdge 224324839#1 224324839#1-AddedOffRampEdge 224324839#0 224324844#9-AddedOnRampEdge 224324844#9 224324844#9-AddedOffRampEdge 224324844#10 224324844#11-AddedOnRampEdge 224324844#11 224324844#1 224324844#2 224324844#2-AddedOffRampEdge 224324876#0 -224324792#0 224324808#0 224324783#0 -224324810#2 -224324810#1 -224324810#0 -224324776#5 -224324776#4 -224324776#3 -224324851#0 224324790#3 224324790#4 224324790#4-AddedOffRampEdge 224320551#0 224324785#0 224324785#2 -224324864 224324787 99810906#4-AddedOnRampEdge 99810906#4 99810906#4-AddedOffRampEdge 224334737 99810906#6-AddedOnRampEdge 99810906#6 99810906#7 99810906#7-AddedOffRampEdge 224334710 99810906#9-AddedOnRampEdge 99810906#9 99810906#9-AddedOffRampEdge 99810906#10 224334769#5 224334769#7-AddedOnRampEdge 224334769#7 224334769#7-AddedOffRampEdge 224334731 224334769#9 224334769#10 224334769#11 224334740 224334769#13 224334733 224334769#15 224334769#16-AddedOnRampEdge 224334769#16 224334769#17-AddedOnRampEdge 224334769#17 224334769#18 224334769#19 224334769#20-AddedOnRampEdge 224334769#20 224334769#20-AddedOffRampEdge 224334769#21 99810903 10712883#1 10712883#2 10712880#1-AddedOnRampEdge 10712880#1 222721799+222721802#1 222721802#2 222721802#3 222721802#4 222721802#5-AddedOnRampEdge 222721802#5 222111133+222721802#6 222721802#7 222721802#8 222721802#8-AddedOffRampEdge 222721802#9 222111171#0 222111171#1 222111162#5 222111162#6 222111162#7 222111172#0 222111172#1 222111172#2-AddedOnRampEdge 222111172#2 222111152+222111172#3 222111172#4 222111172#4-AddedOffRampEdge 222111172#5 222111172#6-AddedOnRampEdge 222111172#6 222111177 222111172#8-AddedOnRampEdge 222111172#8 10713000#5 10713000#6 10713000#1 10713058#0 10713058#0-AddedOffRampEdge 10713058#1 10713058#2-AddedOnRampEdge 10713058#2 10713056#5 10713056#6 10713056#1 50166174 10711040#2-AddedOnRampEdge 10711040#2 10711040#2-AddedOffRampEdge 10711040#3 10711040#4-AddedOnRampEdge 10711040#4 10711040#4-AddedOffRampEdge 10711040#5 10711040#6-AddedOnRampEdge 10711040#6 50301646 10710912#2-AddedOnRampEdge 10710912#2 33423636 300240676#2-AddedOnRampEdge 300240676#2 99880430#1 99880433#1-AddedOnRampEdge 99880433#1 99880433#1-AddedOffRampEdge 188156512#0 188156512#0-AddedOffRampEdge 176295414 176295417#3 176295417#4 176295417#5 176295400#0 -176295406"/>
    </vehicle>
    <vehicle id="20" depart="20.00">
        <route edges="222111151#3 87307075#7 87307075#1 87307075#2 87307075#3 87307075#4 87307075#5 222723829#0 222723826#1+222723829#1 222723829#2 222723829#4 222111139 222111162#3 222111162#4 222111162#5 222111135#0 222111135#1 222111135#2+222111163#0 222111135#3 222111135#4 222111135#5-AddedOnRampEdge 222111135#5 222111135#6+222111168 222111135#8 222111135#9 222111135#10-AddedOnRampEdge 222111135#10 222111135#10-AddedOffRampEdge 222111135#11 222111135#12 222111135#13 87293214#1 87293214#2 87293214#2-AddedOffRampEdge 223517450#0 223517450#1 223517450#2 -223517419#3 -223517419#2 -223517333#3 223517331#0 223517331#1 -223517471#2 223517395 -223517333#0 223517439#1 223517439#3 223517353#1 87293204#1 223517481#0 223517481#1-AddedOnRampEdge 223517481#1 223517387#1"/>
    </vehicle>
    <vehicle id="21" depart="21.00">
        <route edges="86572097#0 86572097#0-AddedOffRampEdge 174751315#0 174751315#0-AddedOffRampEdge 174751309#0 174751309#1 174751309#1-AddedOffRampEdge 174751309#2 199802822#7 199802822#8 199802822#1 199802939#2 199802939#1-AddedOnRampEdge 199802939#1 199802939#1-AddedOffRampEdge 199802939#0 199803538#0 199803538#1 199803538#2 199803978#0 199803978#1-AddedOnRampEdge 199803978#1 50338696#3 50338696#4 50338696#5 199894481 -199894477#5 -199894477#3 -199894477#2 -199894477#1 -199894477#0 199894460 199894459#5 199894465#0 199894465#0-AddedOffRampEdge 199894465#1 199894465#2-AddedOnRampEdge 199894465#2 199894472#1 199894472#2 199894472#3 199894475 -199894480 199894479#0 199894479#1 199894479#2 199894479#3 99055426 100132659#1 100132659#2 100132659#3 99054808#0 99054808#0-AddedOffRampEdge 135704650 -100242803#3 -100242803#2 -100242803#1 180610721 99045819#8 99045819#1 99045819#2 99054806#0 99054806#1 99054806#2 99054806#3 99730692#7 99730692#8 99730692#1 180610732 -194081086#1 99045824#0 278573146#0 99045824#3 -99045824#3"/>
    </vehicle>
    <vehicle id="24" depart="24.00">
        <route edges="-87307234 -87307115#0 -87306989#0 87307199 87307228#5 87307228#6 87307228#7 87307138 87307149#0 87307149#1 87307149#2 87307149#3 87307189 87306961#5 87306961#6 87307170 87307174 87307130#1 87307130#2 87307130#3 87307130#4 87307130#5 87307162 50220417#9-AddedOnRampEdge 50220417#9 50220417#10-AddedOnRampEdge 50220417#10 50220417#11 50220417#12 50220417#12-AddedOffRampEdge 50220417#13 50220417#14-AddedOnRampEdge 50220417#14 50220417#15 50220417#16 50220417#16-AddedOffRampEdge 50220417#17 289639260#0 289639260#1-AddedOnRampEdge 289639260#1 289639260#1-AddedOffRampEdge 289639260#2 289639260#3-AddedOnRampEdge 289639260#3 289639260#3-AddedOffRampEdge 289639260#4 289639260#5-AddedOnRampEdge 289639260#5 289639260#5-AddedOffRampEdge 289639260#8 289639260#9-AddedOnRampEdge 289639260#9 289639260#9-AddedOffRampEdge 289639260#10 25911279#5 25911279#6 25911279#8 25911279#9 25911279#11 25911284#0 25911284#1-AddedOnRampEdge 25911284#1 24381662#6-AddedOnRampEdge 24381662#6 24381662#1 24381662#2 24455746"/>
    </vehicle>
    <vehicle id="25" depart="25.00">
        <route edges="24396068#0 24396068#1 24396029 24395549#2-AddedOnRampEdge 24395549#2 224344458+24395549#3 24395549#4 224343311#1 224343311#2 24395370#0 224343216#0 224343216#1 224343216#3 224343216#4 224343216#5 224343216#6 224343216#8 224343216#10+224343292#1 224343216#11 224343216#12 224343216#13 224343216#14 -224343264+224343216#15 224343216#16 224343216#17 224343216#18 224343216#19 224343216#20 224343216#21+224343307 224343216#22 24550170 24550166#3 24550166#4 24550166#5 -200764163#5 -200764163#4 -200764163#3 -200764163#2 200764222#0 200764222#1 200764222#2 200764222#3 200764221#0 200764221#1 200764221#2 200764164#3 200764164#4 200764164#5 24455895#1 24381662#4 50338298#0"/>
    </vehicle>
    <vehicle id="26" depart="26.00">
        <route edges="222840482 222840468#1 222840468#2 222840478 222840484 222840487#0 222840487#2 222841292#0-AddedOnRampEdge 222841292#0 222841297 -222840477 -24291487#2 -24291487#1 -24291487#0 -222725831#0 222773422#1 222725834 -24271819 24185953#5 24185953#1 24185953#2 24185953#3 24271816 99880426#4-AddedOnRampEdge 99880426#4 99880426#4-AddedOffRampEdge 10477951#0 10477951#0-AddedOffRampEdge 10477951#1 10477951#2-AddedOnRampEdge 10477951#2 10477951#2-AddedOffRampEdge 10478073 10478098#3-AddedOnRampEdge 10478098#3 10478199#1 10478199#2-AddedOnRampEdge 10478199#2 10478199#2-AddedOffRampEdge 99349235 99884586#3 99884586#4 99884586#5 99884560 99349233#10-AddedOnRampEdge 99349233#10 99349233#11 99349233#12 99349233#13 99349233#14 99349233#15 99349233#16 99349233#16-AddedOffRampEdge 99370705 99885766#4 99885766#5 99885766#6 99362369#0 99362369#1 99886973#3 99886973#4 99886973#5 99362370 99892440#3 50338680#0 50338680#0-AddedOffRampEdge 50338680#1 174277244 233936815#1-AddedOnRampEdge 233936815#1 233936815#1-AddedOffRampEdge 233936815#4"/>
    </vehicle>
    <vehicle id="27" depart="27.00">
        <route edges="-228711962#1 -228711962#0 224344471#16 -24396097#4 224344471#0 224344471#1 224344471#2 224344471#3 224344471#4 224344471#5 224344471#6 224344471#7 -224343204#4 -224343204#3 -224343204#1 224343202#0 224343202#1 224343194#2 224343194#3"/>
    </vehicle>
    <vehicle id="28" depart="28.00">
        <route edges="201500281#4 224324855#3 224324855#4 224324855#5 224324855#6 -234530382#2 -234530382#1 222773438#1 222773438#1-AddedOffRampEdge 222773452 222773437#1-AddedOnRampEdge 222773437#1 89382514#2 89382514#3 89382514#4 89382506#0 222723824+89382506#1 89382506#3 87307075#3 87307075#4 87307075#5 222723829#0 222723826#1+222723829#1 222723829#2 222723829#4 222723829#5 222111156+222111176#1 222111176#2 222111165+222111176#3 222111176#4 222111176#4-AddedOffRampEdge 222111176#5 222111176#5-AddedOffRampEdge 222111176#6 222111176#7+222721804 222111176#8 222721809#1 222721809#2 10712891#1 10712891#2 99810906#0 99810906#1-AddedOnRampEdge 99810906#1 99810906#1-AddedOffRampEdge 224324871 224324864 224324785#3 224320551#2 224320551#2-AddedOffRampEdge 224320540#0 224320540#1-AddedOnRampEdge 224320540#1 224320546#6-AddedOnRampEdge 224320546#6 224320546#7 224324828#0 224324773#5 224320544#4 224320544#4-AddedOffRampEdge 224320544#5 224320544#6"/>
    </vehicle>
    <vehicle id="29" depart="29.00">
        <route edges="99367780 99367780-AddedOffRampEdge 99369112#1 99369112#2-AddedOnRampEdge 99369112#2 99887038#2 99887038#3 99887038#4 99362338#0 99369089 99349233#2 99349233#3 99349233#3-AddedOffRampEdge 99349233#4 99349233#5 99349233#6-AddedOnRampEdge 99349233#6 99349233#7 99349233#8 99349233#8-AddedOffRampEdge 99367772 99884586#7 99884586#0 99884586#1 99349236 10478199#4-AddedOnRampEdge 10478199#4 4009554#1-AddedOnRampEdge 4009554#1 4009554#1-AddedOffRampEdge 4009554#2 4009554#3 10712854#0 10712854#0-AddedOffRampEdge 10712854#1 10712854#2 224278002 10712883#1 10712883#2 10712880#1-AddedOnRampEdge 10712880#1 222721799+222721802#1 222721802#2 222721802#3 222721802#4 222721802#5-AddedOnRampEdge 222721802#5 222111133+222721802#6 222721802#7 222721802#8 222721802#8-AddedOffRampEdge 222721802#9 222111171#0 222111171#1 222111162#5 222111162#6 222111162#7 222111172#0 222111172#1 222111172#2-AddedOnRampEdge 222111172#2 222111152+222111172#3 222111172#4 222111172#4-AddedOffRampEdge 222111172#5 222111172#6-AddedOnRampEdge 222111172#6 222111177 222111172#8-AddedOnRampEdge 222111172#8 10713000#5 10713000#6 10713000#1 10713058#0 10713058#0-AddedOffRampEdge 87306971 87307064#0 87307064#1 87307064#2 87307064#3 87307064#5 87307082 87307100#6 87307100#7 87307100#0 87307235 87307190#0 -87307136#3 -87307136#2 -87307136#1 -87307136#0 87307282#3 87307304 -87307166#5 -87307218#1 -87307014#5 -87307014#4 -87307097#1 -87307097#0 87307027#3"/>
    </vehicle>
    <vehicle id="30" depart="30.00">
        <route edges="99810906#8 99810906#9-AddedOnRampEdge 99810906#9 99810906#9-AddedOffRampEdge 99810906#10 224334769#5 224334769#7-AddedOnRampEdge 224334769#7 224334769#7-AddedOffRampEdge 224334731 224334769#9 224334760#2 224334760#1-AddedOnRampEdge 224334760#1 -199894479#6"/>
    </vehicle>
    <vehicle id="32" depart="32.00">
        <route edges="149780417#3 -155396597#0 149779629#2 300269260 300267272#4 300267272#3 300267272#2 300269262#0 300269262#1-AddedOnRampEdge 300269262#1 230228290#2-AddedOnRampEdge 230228290#2 230228290#2-AddedOffRampEdge 230228290#3 99892440#5 99892440#6 99892440#7 99892440#0 99892440#1 99362371 99886973#7 99886973#0 99886973#1 99884540#0 99884540#1 99885766#8 99885766#1 99885766#2 99370704 99349233#1-AddedOnRampEdge 99349233#1 99349233#2 99349233#3 99349233#3-AddedOffRampEdge 99349233#4 99349233#5 99349233#6-AddedOnRampEdge 99349233#6 99349233#7 99349233#8 99349233#8-AddedOffRampEdge 99367772 99884586#7 99884586#0 99884586#1 99349236 10478199#4-AddedOnRampEdge 10478199#4 4009554#1-AddedOnRampEdge 4009554#1 4009554#1-AddedOffRampEdge 4009554#2 4009554#3 10712854#0 10712854#0-AddedOffRampEdge 10712854#1 10712854#2 224278002 10712883#1 10712883#2 10712880#1-AddedOnRampEdge 10712880#1 222721799+222721802#1 222721802#2 222721802#3 222721802#4 222721802#5-AddedOnRampEdge 222721802#5 222111133+222721802#6 222721802#7 222721802#8 222721802#8-AddedOffRampEdge 222721802#9 222111171#0 222111171#1 222111162#5 222111162#6 222111162#7 222111162#8 222111162#1 222111162#2 222111162#3 222111176#0 222111156+222111176#1 222111176#2 222111165+222111176#3 222111176#4 222111176#4-AddedOffRampEdge 222111176#5 222111176#5-AddedOffRampEdge 222721794#0 222721794#0-AddedOffRampEdge 222721794#1 222721803#2 222721810#1-AddedOnRampEdge 222721810#1"/>
    </vehicle>
    <vehicle id="33" depart="33.00">
        <route edges="-201172766 201172766 -201170908#0 201170905#1 201170905#1-AddedOffRampEdge 201170903 199802939#1-AddedOnRampEdge 199802939#1 199802939#1-AddedOffRampEdge 199802939#0 199803538#0 199803538#1 199803538#2 199803978#0 199803978#1-AddedOnRampEdge 199803978#1 50338696#3 50338696#4 50338696#5 199894481 -199894477#5 -199894477#3 -199894477#2 -199894477#1 -199894477#0 199894460 199894459#5 199894465#0 199894465#0-AddedOffRampEdge 199894465#1 199894465#2-AddedOnRampEdge 199894465#2 199894472#1 199894472#2 199894472#3 199894475 -199894480 199894479#0 199894479#1 199894479#2 199894479#3 99055426 100132659#1 100132659#2 100132659#3 99054808#0 99054808#0-AddedOffRampEdge 99054808#1 99054808#2-AddedOnRampEdge 99054808#2 99810857#1 99054392#0 99054392#0-AddedOffRampEdge 99054392#1 99054392#2-AddedOnRampEdge 99054392#2 99054392#3 99054392#4-AddedOnRampEdge 99054392#4 99054392#5 99054392#6-AddedOnRampEdge 99054392#6 88376160#5 88376158#0 88376158#0-AddedOffRampEdge 88376158#1 88376158#2-AddedOnRampEdge 88376158#2 88376139#2 88376139#3 88376139#4 98836474#0 98836474#0-AddedOffRampEdge 100571306 -100242503 100700979 98885192#6 100571308 -98836464#2 -98836464#1 -98836464#0 99810177 96032164#12 96032164#1 96032164#2 96032164#3 96033956 -96033955#2 -96033955#1 -96033955#0 98836461 96032129#7 99810166 -96032130#2 -96032130#1 -96032119#5 275467981"/>
    </vehicle>
    <vehicle id="34" depart="34.00">
        <route edges="155309522 24382206#2 224334769#0 224334769#0-AddedOffRampEdge 224330169 224334769#2 224334769#3 224334769#5 224334769#7-AddedOnRampEdge 224334769#7 224334769#7-AddedOffRampEdge 224334731 224334769#9 224334769#10 224334769#11 224334740 224334769#13 224334733 224334720 100132666#4 100132666#5 100132666#6 100132666#1 224334752#0 -105309212#1 -105309212#0 99045808#1 98885228#7 98885228#0 98885228#1 105309214#0 -99045806#1 -99045806#0 102122544#1 99041733#8 102122552#0 99045810#0 180610747#3 278571551 278571461#2"/>
    </vehicle>
    <vehicle id="35" depart="35.00">