<?xml version="1.0"?>
<!-- generated on 2015-01-01 18:55:04.320084 by $Id: randomTrips.py 16365 2014-05-13 08:50:42Z namdre $ 
  options: -n map.net.xml -p 1 -b 0 -e 50 -l -o map.trips.xml
-->
<trips>
    <trip id="0" depart="0.00" from="10610742#1" to="201500461" />
    <trip id="1" depart="1.00" from="99880426#0" to="224371129#2" />
    <trip id="2" depart="2.00" from="-100242501#1" to="-275464049#3" />
    <trip id="3" depart="3.00" from="-228709335#1" to="99885779#0" />
    <trip id="4" depart="4.00" from="87307220#0" to="-228710188#0" />
    <trip id="5" depart="5.00" from="-201479197#2" to="10611120#4" />
    <trip id="6" depart="6.00" from="-228710169#1" to="-228714417#0" />
    <trip id="7" depart="7.00" from="87307169#0" to="201479200#3" />
    <trip id="8" depart="8.00" from="-24468418#0" to="224324861" />
    <trip id="9" depart="9.00" from="99045814#6" to="-224337206#0" />
    <trip id="10" depart="10.00" from="201172766" to="222773419#3" />
    <trip id="11" depart="11.00" from="87307027#0" to="170224259#0" />
    <trip id="12" depart="12.00" from="24291608#1" to="-87307194" />
    <trip id="13" depart="13.00" from="-99045804#0" to="155403495#12" />
    <trip id="14" depart="14.00" from="89418800" to="-24186140" />
    <trip id="15" depart="15.00" from="223517360#1" to="89382515#1" />
    <trip id="16" depart="16.00" from="223639357" to="-87306968" />
    <trip id="17" depart="17.00" from="167276187#0" to="201479200#0" />
    <trip id="18" depart="18.00" from="10712818#3" to="-213572548" />
    <trip id="19" depart="19.00" from="201479190#1" to="223518164#9" />
    <trip id="20" depart="20.00" from="-201479197#0" to="24550168#0" />
    <trip id="21" depart="21.00" from="-24291487#10" to="-200764164#4" />
    <trip id="22" depart="22.00" from="-195150400#0" to="-228711963#2" />
    <trip id="23" depart="23.00" from="99880426#3" to="-224371137#4" />
    <trip id="24" depart="24.00" from="224324774#2" to="-223517396#0" />
    <trip id="25" depart="25.00" from="228713982#2" to="224324832#0" />
    <trip id="26" depart="26.00" from="228714420#3" to="-224343309#4" />
    <trip id="27" depart="27.00" from="300267285#2" to="10755724#1" />
    <trip id="28" depart="28.00" from="-228714424#1" to="155304355" />
    <trip id="29" depart="29.00" from="-200764221#2" to="201479197#1" />
    <trip id="30" depart="30.00" from="86572097#0" to="223517384#1" />
    <trip id="31" depart="31.00" from="86572097#0" to="-213572648#0" />
    <trip id="32" depart="32.00" from="177014100#2-AddedOnRampEdge" to="300269268" />
    <trip id="33" depart="33.00" from="228709350#1" to="-224371143#0" />
    <trip id="34" depart="34.00" from="-224371138#2" to="230228290#0-AddedOffRampEdge" />
    <trip id="35" depart="35.00" from="174751309#1" to="10611120#2" />
    <trip id="36" depart="36.00" from="224334723" to="24291608#1" />
    <trip id="37" depart="37.00" from="10710912#4" to="25911282#2" />
    <trip id="38" depart="38.00" from="200764164#2" to="300267264#0" />
    <trip id="39" depart="39.00" from="228710351#1" to="-223639413" />
    <trip id="40" depart="40.00" from="222603476#1" to="245394925#9" />
    <trip id="41" depart="41.00" from="201479194#1" to="-293871162" />
    <trip id="42" depart="42.00" from="135702098" to="-224343247#1" />
    <trip id="43" depart="43.00" from="223517419#2" to="201479196#1" />
    <trip id="44" depart="44.00" from="-223517373#0" to="224334769#15" />
    <trip id="45" depart="45.00" from="233936815#0" to="10712854#1" />
    <trip id="46" depart="46.00" from="233936815#0" to="99880426#0" />
    <trip id="47" depart="47.00" from="224344448#0" to="201502181" />
    <trip id="48" depart="48.00" from="-228714008#5" to="99370702" />
    <trip id="49" depart="49.00" from="222767225#4" to="222111135#13" />
</trips>