<?xml version="1.0" encoding="UTF-8"?>

<!-- generated on Wed Dec 10 15:55:04 2014 by SUMO duarouter Version 0.21.0
<?xml version="1.0" encoding="UTF-8"?>

<configuration xmlns:xsi="http://www.w3.org/2001/XMLSchema-instance" xsi:noNamespaceSchemaLocation="http://sumo-sim.org/xsd/duarouterConfiguration.xsd">

    <input>
        <net-file value="map.net.xml"/>
        <trip-files value="map.trips.xml"/>
    </input>

    <output>
        <output-file value="map.rou.xml"/>
    </output>

    <processing>
        <ignore-errors value="true"/>
    </processing>

    <time>
        <begin value="0"/>
        <end value="50.0"/>
    </time>

    <report>
        <no-step-log value="true"/>
    </report>

</configuration>
-->

<routes xmlns:xsi="http://www.w3.org/2001/XMLSchema-instance" xsi:noNamespaceSchemaLocation="http://sumo-sim.org/xsd/routes_file.xsd">
    <vehicle id="0" depart="0.00">
        <route edges="-87307220#3 87307220#3 87307220#4 87307296#1 87307296#2 87307296#3 87307296#4 87307296#5 87307102#2 87307102#3 87307249#0 -87307216#2 -87307216#1 87307216#1"/>
    </vehicle>
    <vehicle id="1" depart="0.01">
        <route edges="-222725848#0 24186156#2 24186156#4 24186156#6 24186156#8 -222842465#0 -222842477#1 -222773413#0 -222725831#8 -222725831#5 -222725831#3 -222725831#2 -222725831#1 -222725831#0 222773422#1 222725834 -24271819 24185953#5 24185953#1 24185953#2 24185953#3 24271816 99880426#4-AddedOnRampEdge 99880426#4 99880426#4-AddedOffRampEdge 99880426#5 99880426#6-AddedOnRampEdge 99880426#6 99880426#6-AddedOffRampEdge 99880426#7"/>
    </vehicle>
    <vehicle id="2" depart="0.02">
        <route edges="180610739#1 180610739#2 180610739#3 180610695#4 180610763 99892490#3 99362336 99887038#8 99887038#1 99887038#2 99887038#3 99887038#4 99362338#0 99369089 99349233#2 99349233#3 99349233#3-AddedOffRampEdge 99349233#4 99349233#5 99349233#6-AddedOnRampEdge 99349233#6 99349233#7 99349233#8 99349233#8-AddedOffRampEdge 99367772 99884586#7 99884586#0 99884586#1 99349236 10478199#4-AddedOnRampEdge 10478199#4 4009554#1-AddedOnRampEdge 4009554#1 4009554#1-AddedOffRampEdge 4009554#2 4009554#3 10712854#0 10712854#0-AddedOffRampEdge 10712854#1 10712854#2 224278002 10712883#1 10712883#2 10712880#1-AddedOnRampEdge 10712880#1 222721799+222721802#1 222721802#2 222721802#3 222721802#4 222721802#5-AddedOnRampEdge 222721802#5 222111133+222721802#6 222721802#7 222721802#8 222721802#8-AddedOffRampEdge 222721802#9 222111171#0 222111171#1 222111162#5 222111162#6 222111162#7 222111172#0 222111172#1 222111172#2-AddedOnRampEdge 222111172#2 222111152+222111172#3 222111172#4 222111172#4-AddedOffRampEdge 222111174#0 -87307169#3 87307062#0 87307062#1 -87307186"/>
    </vehicle>
    <vehicle id="3" depart="0.03">
        <route edges="228714006#1 228714006#2 -228713982#0 -228714004#0 99892498#1 99358510 99885779#2-AddedOnRampEdge 99885779#2 99885779#3 99885766#6 99885766#7 99885766#8 99885766#1 99885766#2 99370704 99349233#1-AddedOnRampEdge 99349233#1 99349233#2 99349233#3 99349233#3-AddedOffRampEdge 99349233#4 99349233#5 99349233#6-AddedOnRampEdge 99349233#6 99349233#7 99349233#8 99349233#8-AddedOffRampEdge 99367772 99884586#7 99884586#0 99884586#1 99349236 10478199#4-AddedOnRampEdge 10478199#4 4009554#1-AddedOnRampEdge 4009554#1 4009554#1-AddedOffRampEdge 4009554#2 4009554#3 10712854#0 10712854#0-AddedOffRampEdge 224277995#0 224277995#0-AddedOffRampEdge 224277983 99810906#1-AddedOnRampEdge 99810906#1 99810906#1-AddedOffRampEdge 99810906#2 236425304#0 236425304#1 88376151#1 88376151#2 88376151#3 98885234#7 98885234#8 98885234#1 98885234#2 98885234#3 88376136#0 88376136#0-AddedOffRampEdge 88376136#1 88376136#2-AddedOnRampEdge 88376136#2 78982759#1 78982759#2 78982759#3 88376137#0 88376137#0-AddedOffRampEdge 100571312 -99046327#1 -99053935#1 -244553279#8 -244553279#7"/>
    </vehicle>
    <vehicle id="4" depart="0.04">
        <route edges="289639260#2 289639260#3-AddedOnRampEdge 289639260#3 289639260#3-AddedOffRampEdge 29009861#0 177014101#3 177014101#4 88376147#0 88376147#0-AddedOffRampEdge 88376147#1 88376147#2-AddedOnRampEdge 88376147#2 88376139#4 88376139#5 88376139#6 98885239#0 98885239#1 98885239#2 98885239#3 98885239#4 177014103#2 177014103#3 177014103#4 24490007#0 24490007#0-AddedOffRampEdge 24490007#1 24490007#2-AddedOnRampEdge 24490007#2 98885234#3 98885234#4 98885234#5 24490012#0 224334769#20-AddedOnRampEdge 224334769#20 224334769#20-AddedOffRampEdge 224334769#21 99810903 10712883#1 10712883#2 10712880#1-AddedOnRampEdge 10712880#1 222721799+222721802#1 222721802#2 222721802#3 222721802#4 222721802#5-AddedOnRampEdge 222721802#5 222111133+222721802#6 222721802#7 222721802#8 222721802#8-AddedOffRampEdge 222721802#9 222111171#0 222780056 222111135#1 222111135#2+222111163#0 222111135#3 222111135#4 222111135#5-AddedOnRampEdge 222111135#5 222111135#6+222111168 222111135#8 222111135#9 222111135#10-AddedOnRampEdge 222111135#10 222111135#10-AddedOffRampEdge 222111135#11 222111135#12 222111135#13 87293214#1 87293214#2 87293214#2-AddedOffRampEdge 223517450#0 223517450#1 223517450#2 223517397#2 223517397#2-AddedOffRampEdge 223517474#0 -223643129#3 -223643130#1 -223643130#0 -223643127#1 223643138#0"/>
    </vehicle>
    <vehicle id="5" depart="0.05">
        <route edges="10755724#1 4009554#1-AddedOnRampEdge 4009554#1 4009554#1-AddedOffRampEdge 4009554#2 4009554#3 10712854#0 10712854#0-AddedOffRampEdge 10712854#1 10712854#2 224278002 10712883#1 10712883#2 10712880#1-AddedOnRampEdge 10712880#1 222721799+222721802#1 222721802#2 222721802#3 222721802#4 222721802#5-AddedOnRampEdge 222721802#5 222111133+222721802#6 222721802#7 222721802#8 222721802#8-AddedOffRampEdge 222721802#9 222111171#0 222111171#1 222111162#5 222111162#6 222111162#7 222111172#0 222111184 222111159#1-AddedOnRampEdge 222111159#1 -87306955#3 -87306955#2 87307172#0 87307172#1 -87307068"/>
    </vehicle>
    <vehicle id="6" depart="0.06">
        <route edges="50338677#2 99892440#1 99362371 99886973#7 99886973#0 99886973#1 99884540#0 99884540#1 99885766#8 99885766#1 99885766#2 99370704 99349233#1-AddedOnRampEdge 99349233#1 99349233#2 99349233#3 99349233#3-AddedOffRampEdge 99349233#4 99349233#5 99349233#6-AddedOnRampEdge 99349233#6 99349233#7 99349233#8 99349233#8-AddedOffRampEdge 99367772 99884586#7 99884586#0 99884586#1 99349236 10478199#4-AddedOnRampEdge 10478199#4 4009554#1-AddedOnRampEdge 4009554#1 4009554#1-AddedOffRampEdge 4009554#2 4009554#3 10712854#0 10712854#0-AddedOffRampEdge 224277995#0 224277995#0-AddedOffRampEdge 224277983 99810906#1-AddedOnRampEdge 99810906#1 99810906#1-AddedOffRampEdge 99810906#2 236425304#0 236425304#1 88376151#1 88376151#2 88376151#3 98885234#7 98885234#8 98885234#1 98885234#2 98885234#3 88376136#0 88376136#0-AddedOffRampEdge 135704714 -99037894#1 -99037894#0 99998608 98885233#6 98885233#7 98885233#0 100700852 100242501#0 99037860#2 244554415#1 244554415#2 244554415#4 244559093"/>
    </vehicle>
    <vehicle id="7" depart="0.07">
        <route edges="99892557 99892553#2 99892553#3 99892553#4 99892555 99885709#7 99349234#0 99349234#1 99884586#5 99884586#6 99884586#7 99884586#0 99884586#1 99349236 10478199#4-AddedOnRampEdge 10478199#4 4009554#1-AddedOnRampEdge 4009554#1 4009554#1-AddedOffRampEdge 4009554#2 4009554#3 10712854#0 10712854#0-AddedOffRampEdge 10712854#1 10712854#2 224278002 10712883#1 224278000 10712818#2 10712818#3 10712818#4-AddedOnRampEdge 10712818#4 10611120#3-AddedOnRampEdge 10611120#3 10611120#3-AddedOffRampEdge 89382516#0 89382516#0-AddedOffRampEdge 89382516#1 89382516#1-AddedOffRampEdge 89382516#2 89382511#7 89382517#0 89382517#1-AddedOnRampEdge 89382517#1 89382517#2 89382517#3 89382517#4 224326327#2 224326377#5 224326377#4 224326324#8 224327171 -224327180#3 -224327178#1"/>
    </vehicle>
    <vehicle id="8" depart="0.08">
        <route edges="222773426#0 -222773426#0 -222773434#5 222773425#0 222773425#1 89382499#2 89382499#3 222773430#4 222773430#5 222773430#6 222773430#7 222773430#8 222773430#1 222773430#2 222773398#0 222773398#1 222773398#2+222773417 222773398#3 233936815#7-AddedOnRampEdge 233936815#7 233936815#7-AddedOffRampEdge 222725845 222725845-AddedOffRampEdge 222773424 -24271819 24185953#5 24185953#1 24185953#2 24185953#3 24271816 99880426#4-AddedOnRampEdge 99880426#4 99880426#4-AddedOffRampEdge 10477951#0 10477951#0-AddedOffRampEdge 10477951#1 10477951#2-AddedOnRampEdge 10477951#2 10477951#2-AddedOffRampEdge 10478073 10478098#3-AddedOnRampEdge 10478098#3 10478199#1 10478199#2-AddedOnRampEdge 10478199#2 10478199#2-AddedOffRampEdge 99349235 99884586#3 99884586#4 99884586#5 99884586#6 99884586#7 99884562#0 99884562#1-AddedOnRampEdge 99884562#1 -99362333#1 -99362333#0 99885759 99885741#3 99885741#4 99885741#5 99892539 -99892547 99892545 99887038#4 99887038#5 99887038#6 99884545 99892490#5 213572612 213572562#1 213572562#2 213572651#0 213572651#1 213572598#1"/>
    </vehicle>
    <vehicle id="9" depart="0.09">
        <route edges="-224324827#2 224324790#4 224324790#4-AddedOffRampEdge 224320551#0 224324785#0 224324785#2 -224324864 224324787 99810906#4-AddedOnRampEdge 99810906#4 99810906#4-AddedOffRampEdge 224334737 99810906#6-AddedOnRampEdge 99810906#6 99810906#7 99810906#7-AddedOffRampEdge 224334710 99810906#9-AddedOnRampEdge 99810906#9 99810906#9-AddedOffRampEdge 99810906#10 224334769#5 224334769#7-AddedOnRampEdge 224334769#7 224334769#7-AddedOffRampEdge 224334731 224334769#9 224334769#10 224334769#11 224334740 224334769#13 224334733 224334769#15 224334769#16-AddedOnRampEdge 224334769#16 224334769#17-AddedOnRampEdge 224334769#17 224334769#18 224334769#19 224334769#20-AddedOnRampEdge 224334769#20 224334769#20-AddedOffRampEdge 224334769#21 99810903 10712883#1 10712883#2 10712880#1-AddedOnRampEdge 10712880#1 222721799+222721802#1 222721802#2 222721802#3 222721802#4 222721802#5-AddedOnRampEdge 222721802#5 222111133+222721802#6 222721802#7 222721802#8 222721802#8-AddedOffRampEdge 222721802#9 222111171#0 222111171#1 222111162#5 222111162#6 222111162#7 222111172#0 222111184 222111159#1-AddedOnRampEdge 222111159#1 -87306955#3 87307010#0 -87307010#4 87307083"/>
    </vehicle>
    <vehicle id="10" depart="0.10">
        <route edges="278573130#0 99045824#2 278573145 -99045824#0 194081086#1 194081086#2 99730692#3 99730692#4 99730692#5 180610726 -99054806#2 -99054806#1 180610727 99045819#4 99045819#5 99045819#6 100242803#0 100242803#1 100242803#2 100242803#3 135704655 99054808#2-AddedOnRampEdge 99054808#2 99810857#1 99810857#2 99810857#3 100132658 99810855#2 99810855#3 99810855#4 99810855#5 100132672 100132666#2 224334759#0 224334759#0-AddedOffRampEdge 224334759#1 224334769#16-AddedOnRampEdge 224334769#16 224334769#17-AddedOnRampEdge 224334769#17 224334769#18 224334769#19 224334769#20-AddedOnRampEdge 224334769#20 224334769#20-AddedOffRampEdge 224334769#21 99810903 10712883#1 10712883#2 10712880#1-AddedOnRampEdge 10712880#1 222721799+222721802#1 222721802#2 222721802#3 222721802#4 222721802#5-AddedOnRampEdge 222721802#5 222111133+222721802#6 222721802#7 222721802#8 222721802#8-AddedOffRampEdge 222721802#9 222111171#0 222111171#1 222111162#5 222111162#6 222111162#7 222111162#8 222111162#1 222111145 222111151#1-AddedOnRampEdge 222111151#1 222111151#2+222723804#1 222111151#3 87307075#7 87307075#1 222723807#0 222723807#1 222723807#2+222723811 222723807#3 222723807#3-AddedOffRampEdge 222723807#4 89382514#0 89382498#0 89382498#1-AddedOnRampEdge 89382498#1 89382498#2 222773430#8 222773430#1 222773430#2 222773430#3 222773430#4 222773415#0 222773415#1-AddedOnRampEdge 222773415#1 234530382#0 234530382#1 234530382#2 -224324855#6 201500280#0 201500280#1 201500280#2 -222773426#2 -222773426#1 222773426#1"/>
    </vehicle>
    <vehicle id="11" depart="0.11">
        <route edges="87307062#4 87306989#2 87307276 10713000#1 10713058#0 10713058#0-AddedOffRampEdge 10713058#1 10713058#2-AddedOnRampEdge 10713058#2 10713056#5 10713056#6 10713056#1 50166174 10711040#2-AddedOnRampEdge 10711040#2 10711040#2-AddedOffRampEdge 10711040#3 10711040#4-AddedOnRampEdge 10711040#4 10711040#4-AddedOffRampEdge 10711040#5 10711040#6-AddedOnRampEdge 10711040#6 50301646 10710912#2-AddedOnRampEdge 10710912#2 33423636 300240676#2-AddedOnRampEdge 300240676#2 99880430#1 99880433#1-AddedOnRampEdge 99880433#1 99880433#1-AddedOffRampEdge 188156512#0 188156512#0-AddedOffRampEdge 176295414 176295417#3 176295417#4 176295417#5 176295400#0 -176295406 176295438#1 176295433#1 24036937#0 24036937#0-AddedOffRampEdge 24036937#1 24036937#2-AddedOnRampEdge 24036937#2 28213354#2 168742725 180610738 168742900 176335388#5 176335390#0"/>
    </vehicle>
    <vehicle id="12" depart="0.12">
        <route edges="228711965#0 -228711962#1 -228711962#0 224344471#16 -24396097#4 -24396097#1 224344469#0 -224344475#4 -224344475#3 -224344475#2 -224344475#1 -224344456#0 224344443#2 224344460#1 -224343216#3 -224343216#1 -224343216#0 24395370#1 224343311#4 224343311#5 224343311#1 24395305#0 24395305#0-AddedOffRampEdge 24395305#1 25911282#8-AddedOnRampEdge 25911282#8 25911282#8-AddedOffRampEdge 25911282#9 25911282#10-AddedOnRampEdge 25911282#10 25911282#11 25911282#12 289639261#0 289639261#1 289639261#2 223517364#0 223517364#1-AddedOnRampEdge 223517364#1 223517364#1-AddedOffRampEdge 223517391#1 87293206#1 87293206#2 87293192#1 87293192#2-AddedOnRampEdge 87293192#2 87293192#3 87293192#4 87293192#5 222111180+87293192#7 87293192#8 87293192#9 87293192#10-AddedOnRampEdge 87293192#10 222111166+87293192#11 222111146#1 222111146#1-AddedOffRampEdge 222111146#0 222111172#1 222111172#2-AddedOnRampEdge 222111172#2 222111152+222111172#3 222111172#4 222111172#4-AddedOffRampEdge 222111172#5 222111172#6-AddedOnRampEdge 222111172#6 222111177 222111172#8-AddedOnRampEdge 222111172#8 10713000#5 10713000#6 10713000#1 10713058#0 10713058#0-AddedOffRampEdge 10713058#1 10713058#2-AddedOnRampEdge 10713058#2 10713056#5 10713056#6 10713056#1 50166174 10711040#2-AddedOnRampEdge 10711040#2 10711040#2-AddedOffRampEdge 10711040#3 10711040#4-AddedOnRampEdge 10711040#4 10711040#4-AddedOffRampEdge 39596421"/>
    </vehicle>
    <vehicle id="13" depart="0.13">
        <route edges="222773393#2 -222843305+222843311 -24186190#2 24291528#0 24291528#3 -222842465#0 -222842477#1 -222773413#0 -222725831#8 -222725831#5 -222725831#3 -222725831#2 -222725831#1 -222725831#0 222773422#1 222773422#2 222773422#3-AddedOnRampEdge 222773422#3 233936815#9-AddedOnRampEdge 233936815#9 233936815#9-AddedOffRampEdge 233936815#10 10711040#0 10711040#0-AddedOffRampEdge 39999961 10713056#3 39297529 10713000#3 39297528#0 222111164+39297528#1 39297528#2 222111142+39297528#3 39297528#4 39297528#4-AddedOffRampEdge 39297528#5 222111162#1 222111162#2 222111162#3 222111176#0 222111156+222111176#1 222111176#2 222111165+222111176#3 222111176#4 222111176#4-AddedOffRampEdge 222111176#5 222111176#5-AddedOffRampEdge 222111176#6 222111176#7+222721804 222111176#8 222721809#1 222721809#2 10712891#1 10712891#2 99810906#0 99810906#1-AddedOnRampEdge 99810906#1 99810906#1-AddedOffRampEdge 99810906#2 236425304#0 236425304#1 88376151#1 -180112219#1 180112226#0 180112226#1 180112226#2 180112217 180112223#1 180610764#0 180610764#1 99045807#1 98885228#5 98885228#6 98885228#7 99045809#0 105309213#0 105309213#1 99810855#5 99810855#6 99810855#7 100132657 99810857#5 99054809 100132659#5 100132659#6 100132659#7 99055429 -199894479#4 -199894479#3 -199894479#2 -199894479#1 -199894479#0 199894480 199894454 199894472#5 199894482#0 199894482#0-AddedOffRampEdge 199894482#1 199894482#2 199894482#3-AddedOnRampEdge 199894482#3 199894459#1 224371162#0 224371162#0-AddedOffRampEdge 224371162#1 224371162#3"/>
    </vehicle>
    <vehicle id="15" depart="0.15">
        <route edges="-222773447 222773434#1 222773425#1 89382499#2 89382499#3 222773430#4 222773430#5 222773430#6 222773430#7 222773430#8 222773430#1 222773430#2 222773398#0 222773398#1 222773398#2+222773417 222773398#3 233936815#7-AddedOnRampEdge 233936815#7 233936815#7-AddedOffRampEdge 233936815#8 233936815#9-AddedOnRampEdge 233936815#9 233936815#9-AddedOffRampEdge 222841292#1 222841292#0-AddedOnRampEdge 222841292#0 222841297 -222840476 24291487#4 24291487#5 24291487#6 24291487#7 180610757#0 -180610757#0"/>
    </vehicle>
    <vehicle id="16" depart="0.16">
        <route edges="87307024#2 87307102#1 87307102#2 87307102#3 87307249#0 87307249#1 87307249#2 87307130#13 87307130#13-AddedOffRampEdge 245394924#0 245394924#1 50220417#14-AddedOnRampEdge 50220417#14 50220417#15 50220417#16 50220417#16-AddedOffRampEdge 50220417#17 289639260#0 289639260#1-AddedOnRampEdge 289639260#1 289639260#1-AddedOffRampEdge 10610741 10610741-AddedOffRampEdge 289639262#0 289639262#1-AddedOnRampEdge 289639262#1 10610742#0 10610742#0-AddedOffRampEdge 10610742#1 10611127#1-AddedOnRampEdge 10611127#1 10611134#1-AddedOnRampEdge 10611134#1"/>
    </vehicle>
    <vehicle id="17" depart="0.17">
        <route edges="99037881#0 99037881#1 -100700589#2 -100700589#1 -100700589#0 -99037884#0 99037907#2 99037889#0 99037889#1 99037889#2 135704717 78982759#3 78982759#4 78982759#5 78982745 98885234#5 24490012#0 224334769#20-AddedOnRampEdge 224334769#20 224334769#20-AddedOffRampEdge 224334769#21 99810903 10712883#1 10712883#2 10712880#1-AddedOnRampEdge 10712880#1 222721799+222721802#1 222721802#2 222721802#3 222721813#1 222721813#2 222721813#3-AddedOnRampEdge 222721813#3 222721813#3-AddedOffRampEdge 222721813#4 222721813#6 222721813#7 222603477#0 222603478#1 222603478#2 222603478#3-AddedOnRampEdge 222603478#3 222603478#5 222603478#6 222603478#7 222603478#8 222603478#9 222603478#10 222603469 222603482#1 -223517338#5 -223517338#4 -223517338#1"/>
    </vehicle>
    <vehicle id="19" depart="0.19">
        <route edges="222040728#0 222040729#1 222637857#4 222041373 222041364#2 222041364#0 221976979#4 221976979#5 221976979#6 221976979#7 222603482#0 222603482#1 167276212#2 87293189 289639260#1-AddedOnRampEdge 289639260#1 289639260#1-AddedOffRampEdge 289639260#2 289639260#3-AddedOnRampEdge 289639260#3 289639260#3-AddedOffRampEdge 289639260#4 289639260#5-AddedOnRampEdge 289639260#5 289639260#5-AddedOffRampEdge 135702096 100240909#0 100240909#1 100240909#2 100240909#3 100240909#4 100240909#5 100240909#6 100240909#7 199894456#0 199894458 199894472#3 199894472#4 199894472#5 199894482#0 199894482#0-AddedOffRampEdge 199894482#1 199894482#2 199894482#3-AddedOnRampEdge 199894482#3 199894459#1 199894459#2 199894459#3 199894470 199894477#0 199894477#1 199894477#2 199894477#3 199894477#5 199894468 50338696#7 50338696#0 50338696#1 199803977#0 199803977#0-AddedOffRampEdge 199803977#1 199803538#4 199803538#5 199803538#6 199802938#0 199802938#1-AddedOnRampEdge 199802938#1 199802938#1-AddedOffRampEdge 199802938#2 199802822#3 199802822#4 199802822#5 199816842#0 199816842#1-AddedOnRampEdge 199816842#1 199816842#2 174751315#2-AddedOnRampEdge 174751315#2 174751315#2-AddedOffRampEdge 174751332 174751307#1-AddedOnRampEdge 174751307#1 156663255#4-AddedOnRampEdge 156663255#4"/>
    </vehicle>
    <vehicle id="20" depart="0.20">
        <route edges="87307250 87307130#11 87307130#12 -87307249#2 -87307249#1 -87307249#0 87307102#4 87307102#1 -87307296#5 -87307296#4 -87307296#3 87307092#0 87307092#1 87307092#2 87307252 87293192#4 87293192#5 222111180+87293192#7 87293192#8 87293192#9 87293192#10-AddedOnRampEdge 87293192#10 222111166+87293192#11 87293192#12 222111162#7 222111162#8 222111162#1 222111145 222111151#1-AddedOnRampEdge 222111151#1 222111151#2+222723804#1 222111151#3 87307075#7 87307075#1 222723807#0 222723807#1 222723807#2+222723811 222723807#3 222723807#3-AddedOffRampEdge 222723807#4 89382514#0 89382498#0 89382498#1-AddedOnRampEdge 89382498#1 89382498#2 222773430#8 222773430#1 222773430#2 222773398#0 222773398#1 222773398#2+222773417 222773398#3 233936815#7-AddedOnRampEdge 233936815#7 233936815#7-AddedOffRampEdge 222725845 222725845-AddedOffRampEdge 222773424 -24271819 24185953#5 24185953#1 -24185995 24036881#3 24036958 168742724#3 168742724#4 28213354#0 28213354#1 28213354#2"/>
    </vehicle>
    <vehicle id="21" depart="0.21">
        <route edges="289639260#8 289639260#9-AddedOnRampEdge 289639260#9 289639260#9-AddedOffRampEdge 135706895 50338692#1-AddedOnRampEdge 50338692#1 50338696#5 50338696#6 50338696#7 50338694#0 50338694#0-AddedOffRampEdge 50338694#1 50338694#4 50338694#6-AddedOnRampEdge 50338694#6 224334749 50338694#8-AddedOnRampEdge 50338694#8 50338694#8-AddedOffRampEdge 224334717 50338694#10-AddedOnRampEdge 50338694#10 155403497#4-AddedOnRampEdge 155403497#4 50338677#0 50338677#0-AddedOffRampEdge 99892483 99892468#7 99892468#0 99892468#1 99892468#2 99892468#3 99884547#0 99884547#2 99884547#3 99886973#1 99886973#2 99886973#3 99886973#4 99886973#5 99886973#6 99886973#7 95984152#0 -286783502"/>
    </vehicle>
    <vehicle id="22" depart="0.22">
        <route edges="99998617 -99998617 -24291487#1 -24291487#0 -222725831#0 222773422#1 222773422#2 222773422#3-AddedOnRampEdge 222773422#3 233936815#9-AddedOnRampEdge 233936815#9 233936815#9-AddedOffRampEdge 233936815#10 10711040#0 10711040#0-AddedOffRampEdge 39999961 10713056#3 39297529 10713000#3 39297528#0 222111164+39297528#1 39297528#2 222111142+39297528#3 39297528#4 39297528#4-AddedOffRampEdge 39297528#5 222111162#1 222111162#2 222111162#3 222111176#0 222111156+222111176#1 222111176#2 222111165+222111176#3 222111176#4 222111176#4-AddedOffRampEdge 222111176#5 222111176#5-AddedOffRampEdge 222111176#6 222111176#7+222721804 222111176#8 222721809#1 222721809#2 10712891#1 10712891#2 99810906#0 99810906#1-AddedOnRampEdge 99810906#1 99810906#1-AddedOffRampEdge 99810906#2 236425304#0 236425304#1 88376151#1 -180112219#1 180112226#0 180112226#1 180112226#2 180112217 180112223#1 180610764#0 180610764#1 99045807#1 98885228#5 98885228#6 98885228#7 99045809#0 105309213#0 105309213#1 99810855#5 99810855#6 99810855#7 100132657 99810857#5 99054809 100132659#5 100132659#6 100132659#7 100132659#8 100132659#1 99050672#0 276687858 276687859#4 276687868 276687861#4 276687971"/>
    </vehicle>
    <vehicle id="23" depart="0.23">
        <route edges="25911282#1 25911282#2 25911282#2-AddedOffRampEdge 25911282#5 25911282#6-AddedOnRampEdge 25911282#6 25911282#6-AddedOffRampEdge 25911282#7 25911282#8-AddedOnRampEdge 25911282#8 25911282#8-AddedOffRampEdge 25911282#9 25911282#10-AddedOnRampEdge 25911282#10 25911282#11 25911282#12 289639261#0 289639261#1 289639261#2 289639261#3 289639261#4-AddedOnRampEdge 289639261#4 289639261#4-AddedOffRampEdge 289639261#7 289639261#8-AddedOnRampEdge 289639261#8"/>
    </vehicle>
    <vehicle id="24" depart="0.24">
        <route edges="99054809 100132659#5 100132681 100132669#1 224334698#0 -224334736#2 -224334742#1 -224334744#0 -224334736#0 224334767 100132666#1 100132666#2 224334759#0 224334759#0-AddedOffRampEdge 224334759#1 224334769#16-AddedOnRampEdge 224334769#16 224334769#17-AddedOnRampEdge 224334769#17 224334769#18 224334769#19 224334769#20-AddedOnRampEdge 224334769#20 224334769#20-AddedOffRampEdge 224334769#21 99810903 10712883#1 10712883#2 10712880#1-AddedOnRampEdge 10712880#1 222721799+222721802#1 222721802#2 222721802#3 222721802#4 222721802#5-AddedOnRampEdge 222721802#5 222111133+222721802#6 222721802#7 222721802#8 222721802#8-AddedOffRampEdge 222721802#9 222111171#0 222111171#1 222111162#5 222111162#6 222111162#7 222111172#0 222111184 222111159#1-AddedOnRampEdge 222111159#1 -87306955#3 -87306955#2 -87306955#1 -87306955#0 87307005 87307048#5 87307048#6 87307048#7 87307165 87307296#0 87307296#1 87307296#2 87307296#3 87307296#4 87307296#5 87307102#2 87307102#3 87307249#0 -87307216#2 -87307216#1 -87306981 87306981"/>
    </vehicle>
    <vehicle id="25" depart="0.25">
        <route edges="199894477#5 199894468 50338696#7 50338696#0 50338696#1 50338696#2 50338696#3 25911285#0 25911285#0-AddedOffRampEdge 25911285#1 25911279#8 25911279#9 25911279#11 25911279#12 25911279#2 25911282#0 25911282#1-AddedOnRampEdge 25911282#1 25911282#2 25911282#2-AddedOffRampEdge 24395355 24550173#0-AddedOnRampEdge 24550173#0 24550173#1 24550166#5 24550166#6 24550166#7 24550166#1 24550168#0 24550168#1 -224343216#22 -224343216#21+-224343307 -224343216#20 224343259#0 224343259#1 224343259#2 224343259#3 -224343320#1 -224343320#0 -224344471#6 -224344471#5"/>
    </vehicle>
    <vehicle id="26" depart="0.26">
        <route edges="99892483 99892468#7 99892468#0 99892468#1 99892468#2 99892468#3 99884547#0 99884547#2 99884547#3 99886973#1 99886973#2 99886973#3 99886973#4 99886973#5 99362370 99892440#3 50338680#0 50338680#0-AddedOffRampEdge 50338680#1 174277244 233936815#1-AddedOnRampEdge 233936815#1 233936815#1-AddedOffRampEdge 233936815#4 233936815#5-AddedOnRampEdge 233936815#5 233936815#5-AddedOffRampEdge 233936815#6 233936815#7-AddedOnRampEdge 233936815#7 233936815#7-AddedOffRampEdge 233936815#8 233936815#9-AddedOnRampEdge 233936815#9 233936815#9-AddedOffRampEdge 233936815#10 10711040#0 10711040#0-AddedOffRampEdge 39999961 10713056#3 10713056#4 10713056#5 50165983#0 50165983#0-AddedOffRampEdge 50165983#1 50165983#2-AddedOnRampEdge 50165983#2"/>
    </vehicle>
    <vehicle id="27" depart="0.27">
        <route edges="99349233#14 -99370703 99349233#3 99349233#3-AddedOffRampEdge 99349233#4 99349233#5 99349233#6-AddedOnRampEdge 99349233#6 99349233#7 99349233#8 99349233#8-AddedOffRampEdge 99367772 99884586#7 99884586#0 99884586#1 99349236 10478199#4-AddedOnRampEdge 10478199#4 4009554#1-AddedOnRampEdge 4009554#1 4009554#1-AddedOffRampEdge 4009554#2 4009554#3 10712854#0 10712854#0-AddedOffRampEdge 224277995#0 224277995#0-AddedOffRampEdge 224277983 99810906#1-AddedOnRampEdge 99810906#1 99810906#1-AddedOffRampEdge 99810906#2 236425304#0 236425304#1 88376151#1 88376151#2 88376151#3 98885234#7 98885234#8 98885234#1 88376153#0 88376153#0-AddedOffRampEdge 88376153#1 88376153#2-AddedOnRampEdge 88376153#2 88376153#3 88376153#4-AddedOnRampEdge 88376153#4 88376153#5 177014103#6 177014103#7 177014103#0 177014106#0 177014106#0-AddedOffRampEdge 177014100#0 177014100#0-AddedOffRampEdge 43945193 88376160#3 88376160#4 88376160#5 88376158#0 88376158#0-AddedOffRampEdge 135702866 99054937#0 99054937#1 99730697 99730695#5 99730695#6 99730695#7 99730700 99054938#0 99045844#3 99045844#4 99045844#5 99045844#6 -99053938#0"/>
    </vehicle>
    <vehicle id="28" depart="0.28">
        <route edges="222723829#2 222723829#4 222723829#5 222111156+222111176#1 222111176#2 222111165+222111176#3 222111176#4 222111176#4-AddedOffRampEdge 222111176#5 222111176#5-AddedOffRampEdge 222111176#6 222111176#7+222721804 222111176#8 222721809#1 222721809#2 10712891#1 10712891#2 99810906#0 99810906#1-AddedOnRampEdge 99810906#1 99810906#1-AddedOffRampEdge 99810906#2 236425304#0 236425304#1 88376151#1 -180112219#1 180112226#0 180112226#1 180112226#2 180112217 180112223#1 180610764#0 180610764#1 99045807#1 98885228#5 98885228#6 98885228#7 99045809#0 105309213#0 105309213#1 99810855#5 99810855#6 99810855#7 100132657 99810857#5 99054809 100132659#5 100132659#6 100132659#7 99055429 -199894479#4 -199894479#3 -199894479#2 224371130#0 224371129#0 224371137#1 -224371149#5 224371173#0 224371138#0 224371138#1 -224371142#7 -224371142#6 -224371142#5 224371161#0 224371161#1 224371161#2 224371161#3 -224371152 224371169#3"/>
    </vehicle>
    <vehicle id="29" depart="0.29">
        <route edges="50220417#13 50220417#14-AddedOnRampEdge 50220417#14 50220417#15 223517459#0 223517459#1-AddedOnRampEdge 223517459#1 223517362#1 223517485#1-AddedOnRampEdge 223517485#1 223517485#1-AddedOffRampEdge 223517355#1 289639261#2 223517364#0 223517364#1-AddedOnRampEdge 223517364#1 223517364#1-AddedOffRampEdge 223517391#1 87293206#1 87293206#2 87293192#1 87293192#2-AddedOnRampEdge 87293192#2 87293192#3 87293192#4 87293192#5 222111180+87293192#7 87293192#8 222111140#0 -87307087#1 -87307087#0 87307144 87307048#7 87307048#8 87307048#1 87306956 87307240 87307016 87307081#0 87307081#1 87307081#2 87307213 -87307194 87307175 87307228#7 87307228#8 87307228#1 87307107 -87307302#1 -87307302#0 87306979 87307100#0 87307100#1 87307100#2 87307059 -87307088#7 87307147 -87307305#1"/>
    </vehicle>
    <vehicle id="31" depart="0.31">
        <route edges="87307149#1 87307149#2 87307269#0 87307269#1 87307269#2 87307269#3 87307269#4 87306963#1 87306963#2 87306963#3 87307233#0 -87306990#4 -87306990#3 -87306990#2 -87306990#1 -87306990#0 -87307296#4 -87307296#3 87307092#0 87307092#1 87307092#2 87307252 87293192#4 221976994 221976979#1-AddedOnRampEdge 221976979#1 221976979#3 221976979#4 221976979#5 221976979#6 221976979#7 221976979#8 221976979#9 221976979#10 221976979#11 221976979#12 221976979#13 221976979#14 221976979#15 221976979#16-AddedOnRampEdge 221976979#16 221976979#17 221976979#17-AddedOffRampEdge 221976979#18 221976979#19 221976979#20 222603473#1 222721813#9 222721813#9-AddedOffRampEdge 222721813#10 222721813#11-AddedOnRampEdge 222721813#11 89418709"/>
    </vehicle>
    <vehicle id="32" depart="0.32">
        <route edges="-228710149#2 -228710149#1 -228710149#0 200764222#8 -200764200#3 -200764200#2 -200764200#1 -200764200#0 200764164#4 200764164#5 24455895#1 24381662#4 50338298#0 50338298#0-AddedOffRampEdge 50338298#1 25911279#2 25911279#3 25911279#5 50338692#0 50338692#1-AddedOnRampEdge 50338692#1 50338696#5 50338696#6 50338696#7 50338694#0 50338694#0-AddedOffRampEdge 50338694#1 224334769#5"/>
    </vehicle>
    <vehicle id="33" depart="0.33">
        <route edges="-87307254 87307166#9 -87307190#3 -87307190#2 87307242#0 87307127 87307302#1 87307012 87307228#3 87306967 87306989#0 87306989#1 87306989#2 87307276 10713000#1 10713000#2 10713000#3 39297528#0 222111164+39297528#1 39297528#2 222111142+39297528#3 39297528#4 39297528#4-AddedOffRampEdge 222111151#0 222111151#1-AddedOnRampEdge 222111151#1 222111151#2+222723804#1 222111151#3 87307075#7 87307075#1 222723807#0 222723807#1 222723807#2+222723811 222723807#3 222723807#3-AddedOffRampEdge 222723807#4 89382514#0 89382498#0 89382498#1-AddedOnRampEdge 89382498#1 89382498#2 222773430#8 222773430#1 222773430#2 222773430#3 222773430#4 222773415#0 222773415#1-AddedOnRampEdge 222773415#1 234530382#0 234530382#1 234530382#2 -224324855#6 201500280#0 201500280#1 201500280#2 201500280#3 201500280#4 201500523#0 201500523#1"/>
    </vehicle>