<?xml version="1.0"?>
<!-- generated on 2014-12-10 15:55:02.225301 by $Id: randomTrips.py 16365 2014-05-13 08:50:42Z namdre $ 
  options: -n map.net.xml -p 0.01 -b 0 -e 50 -l -o map.trips.xml
-->
<trips>
    <trip id="0" depart="0.00" from="-87307220#3" to="87307216#1" />
    <trip id="1" depart="0.01" from="-222725848#0" to="99880426#7" />
    <trip id="2" depart="0.02" from="180610739#1" to="-87307186" />
    <trip id="3" depart="0.03" from="228714006#1" to="-244553279#7" />
    <trip id="4" depart="0.04" from="289639260#2" to="223643138#0" />
    <trip id="5" depart="0.05" from="10755724#1" to="-87307068" />
    <trip id="6" depart="0.06" from="50338677#2" to="244559093" />
    <trip id="7" depart="0.07" from="99892557" to="-224327178#1" />
    <trip id="8" depart="0.08" from="222773426#0" to="213572598#1" />
    <trip id="9" depart="0.09" from="-224324827#2" to="87307083" />
    <trip id="10" depart="0.10" from="278573130#0" to="222773426#1" />
    <trip id="11" depart="0.11" from="87307062#4" to="176335390#0" />
    <trip id="12" depart="0.12" from="228711965#0" to="39596421" />
    <trip id="13" depart="0.13" from="222773393#2" to="224371162#3" />
    <trip id="14" depart="0.14" from="99362371" to="201479196#0" />
    <trip id="15" depart="0.15" from="-222773447" to="-180610757#0" />
    <trip id="16" depart="0.16" from="87307024#2" to="10611134#1" />
    <trip id="17" depart="0.17" from="99037881#0" to="-223517338#1" />
    <trip id="18" depart="0.18" from="-223639444#3" to="213572556#0" />
    <trip id="19" depart="0.19" from="222040728#0" to="156663255#4" />
    <trip id="20" depart="0.20" from="87307250" to="28213354#2" />
    <trip id="21" depart="0.21" from="289639260#8" to="-286783502" />
    <trip id="22" depart="0.22" from="99998617" to="276687971" />
    <trip id="23" depart="0.23" from="25911282#1" to="289639261#8" />
    <trip id="24" depart="0.24" from="99054809" to="87306981" />
    <trip id="25" depart="0.25" from="199894477#5" to="-224344471#5" />
    <trip id="26" depart="0.26" from="99892483" to="50165983#2" />
    <trip id="27" depart="0.27" from="99349233#14" to="-99053938#0" />
    <trip id="28" depart="0.28" from="222723829#2" to="224371169#3" />
    <trip id="29" depart="0.29" from="50220417#13" to="-87307305#1" />
    <trip id="30" depart="0.30" from="224320548#1" to="-201479198#1" />
    <trip id="31" depart="0.31" from="87307149#1" to="89418709" />
    <trip id="32" depart="0.32" from="-228710149#2" to="224334769#5" />
    <trip id="33" depart="0.33" from="-87307254" to="201500523#1" />
    <trip id="34" depart="0.34" from="201479191#2" to="213572586" />
    <trip id="35" depart="0.35" from="-149780417#5" to="289639261#8" />
    <trip id="36" depart="0.36" from="-201500280#9" to="-223639413" />
    <trip id="37" depart="0.37" from="87307136#2" to="100700514#5" />
    <trip id="38" depart="0.38" from="-201500281#0" to="135702868#2" />
    <trip id="39" depart="0.39" from="87307087#0" to="25911283#3" />
    <trip id="40" depart="0.40" from="228709335#10" to="167276187#3" />
    <trip id="41" depart="0.41" from="-201479200#2" to="86572097#6" />
    <trip id="42" depart="0.42" from="99880418#2" to="-223639418#2" />
    <trip id="43" depart="0.43" from="-201479191#0" to="228709335#10" />
    <trip id="44" depart="0.44" from="-244552748#6" to="201479199#3" />
    <trip id="45" depart="0.45" from="-201479198#0" to="224277997#1" />
    <trip id="46" depart="0.46" from="10479200#0" to="-87307127" />
    <trip id="47" depart="0.47" from="50220417#1" to="78982767" />
    <trip id="48" depart="0.48" from="224337206#0" to="275469096" />
    <trip id="49" depart="0.49" from="99880407#0" to="99810209#1" />
    <trip id="50" depart="0.50" from="87307024#2" to="222773435#0" />
    <trip id="51" depart="0.51" from="99810906#6-AddedOnRampEdge" to="149780417#8" />
    <trip id="52" depart="0.52" from="-201576298#0" to="-201500334#1" />
    <trip id="53" depart="0.53" from="-201500523#0" to="-224371139#5" />
    <trip id="54" depart="0.54" from="222773397#2" to="98882833#0-AddedOffRampEdge" />
    <trip id="55" depart="0.55" from="95984152#6" to="-224343303#2" />
    <trip id="56" depart="0.56" from="201576140#2" to="224324864" />
    <trip id="57" depart="0.57" from="224324855#1" to="201479190#0" />
    <trip id="58" depart="0.58" from="-201479190#3" to="-96032130#1" />
    <trip id="59" depart="0.59" from="-224343210#0" to="224337206#0" />
    <trip id="60" depart="0.60" from="24494640#0" to="155405757#6" />
    <trip id="61" depart="0.61" from="289639260#9" to="89418746" />
    <trip id="62" depart="0.62" from="224324771" to="224324824#0" />
    <trip id="63" depart="0.63" from="-201479195#7" to="-228714427#0" />
    <trip id="64" depart="0.64" from="-100700667#8" to="176335378#1" />
    <trip id="65" depart="0.65" from="87307216#1" to="43945192#2" />
    <trip id="66" depart="0.66" from="224324803" to="221976985" />
    <trip id="67" depart="0.67" from="224343265#4" to="10478605#1" />
    <trip id="68" depart="0.68" from="-275462549#2" to="87307259#3" />
    <trip id="69" depart="0.69" from="24455895#1" to="228709335#6" />
    <trip id="70" depart="0.70" from="224324839#2" to="222632224#1" />
    <trip id="71" depart="0.71" from="-87307242#1" to="224324861" />
    <trip id="72" depart="0.72" from="233936815#0" to="224343255#1" />
    <trip id="73" depart="0.73" from="224320548#1" to="100700680#5" />
    <trip id="74" depart="0.74" from="228710169#0" to="99810831#1" />
    <trip id="75" depart="0.75" from="224324774#1" to="-223517439#1" />
    <trip id="76" depart="0.76" from="-201500281#0" to="-87307220#0" />
    <trip id="77" depart="0.77" from="-194081080#0" to="89382508#2-AddedOnRampEdge" />
    <trip id="78" depart="0.78" from="-224371129#2" to="4009554#5" />
    <trip id="79" depart="0.79" from="10755724#0" to="-180241161#0" />
    <trip id="80" depart="0.80" from="10755724#1" to="87307302#1" />
    <trip id="81" depart="0.81" from="222767222#0" to="228711962#3" />
    <trip id="82" depart="0.82" from="10707276#5" to="100700742#3" />
    <trip id="83" depart="0.83" from="24550171" to="25911282#1" />
    <trip id="84" depart="0.84" from="-201479196#2" to="228714421#0" />
    <trip id="85" depart="0.85" from="200764164#2" to="-87307185" />
    <trip id="86" depart="0.86" from="224324856#0" to="222111146#1" />
    <trip id="87" depart="0.87" from="-224324873#2" to="224343216#17" />
    <trip id="88" depart="0.88" from="-100700635#3" to="99349232" />
    <trip id="89" depart="0.89" from="223639396" to="89382499#0-AddedOffRampEdge" />
    <trip id="90" depart="0.90" from="156663255#2" to="24455891" />
    <trip id="91" depart="0.91" from="224324827#2" to="-200764164#1" />
    <trip id="92" depart="0.92" from="224277988" to="199894482#1" />
    <trip id="93" depart="0.93" from="-201479192" to="99885755" />
    <trip id="94" depart="0.94" from="213572621#1" to="99880426#4" />
    <trip id="95" depart="0.95" from="222609124#2" to="-201479252#8" />
    <trip id="96" depart="0.96" from="224334769#7-AddedOffRampEdge" to="96033955#2" />
    <trip id="97" depart="0.97" from="24469665#3" to="87307269#0" />
    <trip id="98" depart="0.98" from="99880433#2" to="-222636161#2" />
    <trip id="99" depart="0.99" from="233936815#0" to="-201500281#1" />
    <trip id="100" depart="1.00" from="10707276#3" to="24036926" />
    <trip id="101" depart="1.01" from="199806291" to="224371162#0" />
    <trip id="102" depart="1.02" from="201500461" to="78982745" />
    <trip id="103" depart="1.03" from="-87307010#1" to="50165984" />
    <trip id="104" depart="1.04" from="-276679741#1" to="224343198#0" />
    <trip id="105" depart="1.05" from="155304355" to="156663255#4" />
    <trip id="106" depart="1.06" from="222609133#0" to="50338298#0" />
    <trip id="107" depart="1.07" from="24287283#2" to="195150398#0" />
    <trip id="108" depart="1.08" from="-24271819" to="222609128#3" />
    <trip id="109" depart="1.09" from="278571369#0" to="87307154#0" />
    <trip id="110" depart="1.10" from="-275467753#0" to="50220417#3" />
    <trip id="111" depart="1.11" from="-148100270#1" to="176295414" />
    <trip id="112" depart="1.12" from="87307063" to="244558577#1" />
    <trip id="113" depart="1.13" from="201479447#3" to="272839924#0" />
    <trip id="114" depart="1.14" from="213572609#0" to="86572097#6" />
    <trip id="115" depart="1.15" from="174751340#0" to="-201479198#1" />
    <trip id="116" depart="1.16" from="10707276#4" to="-199806160" />
    <trip id="117" depart="1.17" from="149780417#8" to="224326389#0-AddedOffRampEdge" />
    <trip id="118" depart="1.18" from="-87307178" to="-228710189#2" />
    <trip id="119" depart="1.19" from="87307014#3" to="201479191#1" />
    <trip id="120" depart="1.20" from="-99810830#1" to="-228713993" />
    <trip id="121" depart="1.21" from="228714411#2" to="-224343266#5" />
    <trip id="122" depart="1.22" from="10478364#0" to="87307010#1" />
    <trip id="123" depart="1.23" from="87307185" to="224320546#8" />
    <trip id="124" depart="1.24" from="201500280#7" to="-224344471#15" />
    <trip id="125" depart="1.25" from="-201479197#0" to="25911282#0" />
    <trip id="126" depart="1.26" from="276686398#0" to="201479201#4" />
    <trip id="127" depart="1.27" from="224277988" to="222603481#1" />
    <trip id="128" depart="1.28" from="86572097#3" to="156663255#4" />
    <trip id="129" depart="1.29" from="-87307027#2" to="223517394" />
    <trip id="130" depart="1.30" from="223639431#0" to="201479197#2" />
    <trip id="131" depart="1.31" from="96911121#0" to="-201479197#1" />
    <trip id="132" depart="1.32" from="224326377#0" to="275464049#2" />
    <trip id="133" depart="1.33" from="224324776#2" to="299886042" />
    <trip id="134" depart="1.34" from="222041361#2" to="99880426#7" />
    <trip id="135" depart="1.35" from="87307130#8" to="24550168#0" />
    <trip id="136" depart="1.36" from="224330157#1" to="222603483" />
    <trip id="137" depart="1.37" from="201479199#0" to="289639260#8" />
    <trip id="138" depart="1.38" from="99365082#1" to="99349233#3-AddedOffRampEdge" />
    <trip id="139" depart="1.39" from="-213572644" to="88376158#0-AddedOffRampEdge" />
    <trip id="140" depart="1.40" from="-224334704#4" to="10610744#0" />
    <trip id="141" depart="1.41" from="-273222783#1" to="87183566" />
    <trip id="142" depart="1.42" from="99880417#1" to="95984152#3" />
    <trip id="143" depart="1.43" from="-201576303#2" to="-213572636#1" />
    <trip id="144" depart="1.44" from="-228714408#0" to="-228710337#0" />
    <trip id="145" depart="1.45" from="228713990#1" to="-155405757#0" />
    <trip id="146" depart="1.46" from="200025531#1" to="168744024#0" />
    <trip id="147" depart="1.47" from="-213572644" to="99892468#0" />
    <trip id="148" depart="1.48" from="168744017#0" to="149780035#1" />
    <trip id="149" depart="1.49" from="224324839#2" to="-223517396#0" />
    <trip id="150" depart="1.50" from="177014103#5" to="87307115#2" />
    <trip id="151" depart="1.51" from="168744011" to="24381493" />
    <trip id="152" depart="1.52" from="201479199#1" to="-228710182#1" />
    <trip id="153" depart="1.53" from="-99045804#0" to="276687328#0" />
    <trip id="154" depart="1.54" from="-87307065" to="99880426#7" />
    <trip id="155" depart="1.55" from="10712757#0" to="-228710188#0" />
    <trip id="156" depart="1.56" from="224278000" to="-195150398#0" />
    <trip id="157" depart="1.57" from="233936815#0" to="200764164#4" />
    <trip id="158" depart="1.58" from="155403495#4" to="89415424#0" />
    <trip id="159" depart="1.59" from="224343204#1" to="276687864#0" />
    <trip id="160" depart="1.60" from="-87307072" to="-87307115#2" />
    <trip id="161" depart="1.61" from="289639260#2" to="-200764164#2" />
    <trip id="162" depart="1.62" from="-224343304#1" to="-265926968" />
    <trip id="163" depart="1.63" from="99365082#1" to="228709894#1" />
    <trip id="164" depart="1.64" from="289639260#2" to="-98836468#0" />
    <trip id="165" depart="1.65" from="10478199#2" to="222723829#5" />
    <trip id="166" depart="1.66" from="233936815#6" to="228713994#0" />
    <trip id="167" depart="1.67" from="213572549#1" to="89382515#1" />
    <trip id="168" depart="1.68" from="155310142#7-AddedOnRampEdge" to="222111140#1" />
    <trip id="169" depart="1.69" from="10755724#0" to="201479197#1" />
    <trip id="170" depart="1.70" from="-201500462#1" to="176295414" />
    <trip id="171" depart="1.71" from="10755724#0" to="-199816367#0" />
    <trip id="172" depart="1.72" from="-96032121#0" to="160488152#1" />
    <trip id="173" depart="1.73" from="233936815#0" to="-222773383#0" />
    <trip id="174" depart="1.74" from="174751309#1" to="228709329#2" />
    <trip id="175" depart="1.75" from="233936815#5" to="228714442" />
    <trip id="176" depart="1.76" from="167276187#3" to="180610769" />
    <trip id="177" depart="1.77" from="213572597#5" to="99054938#0" />
    <trip id="178" depart="1.78" from="174751309#1" to="-87307259#3" />
    <trip id="179" depart="1.79" from="222111152+222111172#3" to="224343206#4" />
    <trip id="180" depart="1.80" from="99055429" to="10712757#1" />
    <trip id="181" depart="1.81" from="87307166#6" to="-265927206" />
    <trip id="182" depart="1.82" from="-224343259#3" to="174751332" />
    <trip id="183" depart="1.83" from="87307194" to="-228712859" />
    <trip id="184" depart="1.84" from="201479201#0" to="-213572580" />
    <trip id="185" depart="1.85" from="224371146#1" to="24455895#1" />
    <trip id="186" depart="1.86" from="-273214160" to="224344471#13" />
    <trip id="187" depart="1.87" from="-10711846" to="155309525#6" />
    <trip id="188" depart="1.88" from="-222636191#6" to="24494640#0" />
    <trip id="189" depart="1.89" from="-228714450#0" to="-155396117#0" />
    <trip id="190" depart="1.90" from="201500281#4" to="87307190#2" />
    <trip id="191" depart="1.91" from="-222636406" to="213572569" />
    <trip id="192" depart="1.92" from="87307138" to="86572097#4-AddedOffRampEdge" />
    <trip id="193" depart="1.93" from="-24291608#1" to="228714436#0" />
    <trip id="194" depart="1.94" from="224334730" to="25911283#3" />
    <trip id="195" depart="1.95" from="224343247#1" to="228714001#0" />
    <trip id="196" depart="1.96" from="224337204#0" to="213572570#3" />
    <trip id="197" depart="1.97" from="224330157#1" to="-224337204#0" />
    <trip id="198" depart="1.98" from="224344450#6" to="-87307286" />
    <trip id="199" depart="1.99" from="50165984" to="87307259#1" />
    <trip id="200" depart="2.00" from="289639262#2" to="-224343293#10" />
    <trip id="201" depart="2.01" from="24381492" to="87307197#0" />
    <trip id="202" depart="2.02" from="-201502667" to="-149780417#1" />
    <trip id="203" depart="2.03" from="99887038#7" to="201479198#3" />
    <trip id="204" depart="2.04" from="10710912#4-AddedOnRampEdge" to="222721793" />
    <trip id="205" depart="2.05" from="24455895#1" to="-201500334#1" />
    <trip id="206" depart="2.06" from="-223517331#1" to="-224344443#1" />
    <trip id="207" depart="2.07" from="224324823#1" to="222773413#0" />
    <trip id="208" depart="2.08" from="275467979#0" to="39596421" />
    <trip id="209" depart="2.09" from="10611120#2" to="224343271" />
    <trip id="210" depart="2.10" from="155309518#0" to="4009554#6" />
    <trip id="211" depart="2.11" from="149779629#0" to="-228714454#1" />
    <trip id="212" depart="2.12" from="224324790#4-AddedOffRampEdge" to="201479201#5" />
    <trip id="213" depart="2.13" from="-276687873" to="-222767222#8" />
    <trip id="214" depart="2.14" from="10478271#4" to="-201500280#8" />
    <trip id="215" depart="2.15" from="25911283#1" to="213572644" />
    <trip id="216" depart="2.16" from="87293194" to="224277995#1" />
    <trip id="217" depart="2.17" from="50166174" to="224324817#3" />
    <trip id="218" depart="2.18" from="224326348" to="180610768#1" />
    <trip id="219" depart="2.19" from="228714419#3" to="10611120#4" />
    <trip id="220" depart="2.20" from="99358507#1" to="86572097#6" />
    <trip id="221" depart="2.21" from="224324827#2" to="87307150#1" />
    <trip id="222" depart="2.22" from="4009554#1" to="224371128" />
    <trip id="223" depart="2.23" from="180610664#0" to="-201500334#1" />
    <trip id="224" depart="2.24" from="177014103#3" to="4009554#4" />
    <trip id="225" depart="2.25" from="10755724#0" to="-87307009#3" />
    <trip id="226" depart="2.26" from="10755724#0" to="-201479200#0" />
    <trip id="227" depart="2.27" from="174277244" to="228709876#2" />
    <trip id="228" depart="2.28" from="99369110" to="-224343326" />
    <trip id="229" depart="2.29" from="228710176" to="24455891" />
    <trip id="230" depart="2.30" from="180610752" to="-87307238#1" />
    <trip id="231" depart="2.31" from="-87307150#2" to="89381717" />
    <trip id="232" depart="2.32" from="-222637860#1" to="10478605#1" />
    <trip id="233" depart="2.33" from="99810906#0" to="-24291608#0" />
    <trip id="234" depart="2.34" from="24381492" to="224330153" />
    <trip id="235" depart="2.35" from="-213572620#0" to="222603484" />
    <trip id="236" depart="2.36" from="149780417#0" to="168744022#2" />
    <trip id="237" depart="2.37" from="-201500333" to="275466499#2" />
    <trip id="238" depart="2.38" from="-224344472#3" to="228710185#0" />
    <trip id="239" depart="2.39" from="224324785#3" to="-201479193#6" />
    <trip id="240" depart="2.40" from="99138691#1" to="188156508" />
    <trip id="241" depart="2.41" from="-275434047#0" to="10712883#2" />
    <trip id="242" depart="2.42" from="233936815#0" to="222637865#2" />
    <trip id="243" depart="2.43" from="-201479190#1" to="87307074" />
    <trip id="244" depart="2.44" from="201479252#0" to="-224343243#1" />
    <trip id="245" depart="2.45" from="201479198#0" to="156663255#4" />
    <trip id="246" depart="2.46" from="-224324862#1" to="-100240909#6" />
    <trip id="247" depart="2.47" from="24455895#1" to="201479194#0" />
    <trip id="248" depart="2.48" from="233936815#5" to="-87306968" />
    <trip id="249" depart="2.49" from="223519670#2" to="-224324814#0" />
    <trip id="250" depart="2.50" from="-228711969" to="223519658#4" />
    <trip id="251" depart="2.51" from="10713058#2" to="99880426#7" />
    <trip id="252" depart="2.52" from="289639260#2" to="-199816367#1" />
    <trip id="253" depart="2.53" from="201479447#4" to="96032121#2" />
    <trip id="254" depart="2.54" from="24503790" to="149610062#4" />
    <trip id="255" depart="2.55" from="-87307190#2" to="276687871" />
    <trip id="256" depart="2.56" from="200764163#1" to="213572620#2" />
    <trip id="257" depart="2.57" from="-224343201" to="-224337210#0" />
    <trip id="258" depart="2.58" from="222773419#2" to="99362338#0" />
    <trip id="259" depart="2.59" from="228714419#3" to="-228714002" />
    <trip id="260" depart="2.60" from="-155396597#5" to="-87306968" />
    <trip id="261" depart="2.61" from="223639381#5" to="-87307149#1" />
    <trip id="262" depart="2.62" from="-297429692#0" to="-201479195#5" />
    <trip id="263" depart="2.63" from="224344471#16" to="-224343255#3" />
    <trip id="264" depart="2.64" from="-87307168" to="86572097#6" />
    <trip id="265" depart="2.65" from="10755724#0" to="50220417#9" />
    <trip id="266" depart="2.66" from="89418735" to="50220417#1" />
    <trip id="267" depart="2.67" from="50220417#1" to="228713990#0" />
    <trip id="268" depart="2.68" from="-87307115#3" to="99358512" />
    <trip id="269" depart="2.69" from="24271822" to="87306989#1" />
    <trip id="270" depart="2.70" from="-201170908#1" to="-228710345#1" />
    <trip id="271" depart="2.71" from="224277992#1" to="-275468428#0" />
    <trip id="272" depart="2.72" from="-201500334#0" to="224324844#1" />
    <trip id="273" depart="2.73" from="224324783#2" to="156663255#4" />
    <trip id="274" depart="2.74" from="224371139#8" to="180610753" />
    <trip id="275" depart="2.75" from="-87307244#1" to="-201500280#4" />
    <trip id="276" depart="2.76" from="200764221#2" to="95984162#1" />
    <trip id="277" depart="2.77" from="-200764164#2" to="224343259#1" />
    <trip id="278" depart="2.78" from="222637873#0" to="224343210#7" />
    <trip id="279" depart="2.79" from="156663255#0" to="200002996#0" />
    <trip id="280" depart="2.80" from="222773434#8" to="87307014#2" />
    <trip id="281" depart="2.81" from="221976979#8" to="99880426#7" />
    <trip id="282" depart="2.82" from="224324827#0" to="222767225#4" />
    <trip id="283" depart="2.83" from="300264633" to="224277974" />
    <trip id="284" depart="2.84" from="-224371139#0" to="201479447#2" />
    <trip id="285" depart="2.85" from="180610781#0" to="-228711963#0" />
    <trip id="286" depart="2.86" from="233936815#4" to="176295401" />
    <trip id="287" depart="2.87" from="289639261#4" to="10478605#1" />
    <trip id="288" depart="2.88" from="88376151#0" to="199894479#2" />
    <trip id="289" depart="2.89" from="87293202#4" to="-201479191#2" />
    <trip id="290" depart="2.90" from="99054076#5" to="222111171#1" />
    <trip id="291" depart="2.91" from="201479196#1" to="-228709874#2" />
    <trip id="292" depart="2.92" from="224371168" to="-201479200#2" />
    <trip id="293" depart="2.93" from="-278572223" to="-228710337#1" />
    <trip id="294" depart="2.94" from="-201479199#0" to="155309525#4" />
    <trip id="295" depart="2.95" from="167276187#3" to="156663255#4" />
    <trip id="296" depart="2.96" from="224371133#2" to="24291568#1" />
    <trip id="297" depart="2.97" from="10707276#4" to="180383881#0" />
    <trip id="298" depart="2.98" from="-99037889#2" to="-224343264+224343216#15" />
    <trip id="299" depart="2.99" from="-224279948#1" to="24550167" />
    <trip id="300" depart="3.00" from="223517461#1" to="99880426#7" />
    <trip id="301" depart="3.01" from="257729546#0" to="10611120#6" />
    <trip id="302" depart="3.02" from="50165538" to="24381519" />
    <trip id="303" depart="3.03" from="289639262#3" to="100700558#1" />
    <trip id="304" depart="3.04" from="-99045844#1" to="-223517471#1" />
    <trip id="305" depart="3.05" from="99810208#2" to="24036942#1" />
    <trip id="306" depart="3.06" from="-228710171#1" to="-201479252#4" />
    <trip id="307" depart="3.07" from="149610062#2" to="224277989#1" />
    <trip id="308" depart="3.08" from="89382511#2" to="201172557#1" />
    <trip id="309" depart="3.09" from="222606647#1" to="201479191#0" />
    <trip id="310" depart="3.10" from="213572553#0" to="105309213#1" />
    <trip id="311" depart="3.11" from="224334761" to="224337205#0" />
    <trip id="312" depart="3.12" from="-180610660#0" to="155404113#0-AddedOffRampEdge" />
    <trip id="313" depart="3.13" from="-100242804#1" to="99810830#1" />
    <trip id="314" depart="3.14" from="180610738" to="99037924#2" />
    <trip id="315" depart="3.15" from="222603484" to="-213572648#2" />
    <trip id="316" depart="3.16" from="155309522" to="-24291608#0" />
    <trip id="317" depart="3.17" from="176295414" to="201479199#1" />
    <trip id="318" depart="3.18" from="10611120#6" to="99880407#0" />
    <trip id="319" depart="3.19" from="-286783502" to="99880426#0" />
    <trip id="320" depart="3.20" from="24455892" to="224324827#2" />
    <trip id="321" depart="3.21" from="39461988#0" to="87293202#1" />
    <trip id="322" depart="3.22" from="233936815#0" to="222041364#2" />
    <trip id="323" depart="3.23" from="201479197#1" to="200764164#2" />
    <trip id="324" depart="3.24" from="86572097#0" to="-24291608#1" />
    <trip id="325" depart="3.25" from="24396068#0" to="-228714421#4" />
    <trip id="326" depart="3.26" from="87307168" to="-24271819" />
    <trip id="327" depart="3.27" from="86572097#0" to="224334769#0" />
    <trip id="328" depart="3.28" from="224324801#1" to="-228714008#5" />
    <trip id="329" depart="3.29" from="86572097#0" to="275467981" />
    <trip id="330" depart="3.30" from="-201479192" to="25911283#3" />
    <trip id="331" depart="3.31" from="168744040#1" to="-272676612" />
    <trip id="332" depart="3.32" from="100132666#6" to="155403495#12-AddedOffRampEdge" />
    <trip id="333" depart="3.33" from="222721813#3-AddedOffRampEdge" to="-224324807#2" />
    <trip id="334" depart="3.34" from="-213572620#2" to="213572625#2" />
    <trip id="335" depart="3.35" from="180112226#1" to="10707276#3" />
    <trip id="336" depart="3.36" from="-213572636#3" to="223643138#0" />
    <trip id="337" depart="3.37" from="-213572621#2" to="-87307065" />
    <trip id="338" depart="3.38" from="224278002" to="-228709890#0" />
    <trip id="339" depart="3.39" from="233936815#9" to="200025531#1" />
    <trip id="340" depart="3.40" from="-99998624#1" to="194081083#1" />
    <trip id="341" depart="3.41" from="-194080899#2" to="99880426#7" />
    <trip id="342" depart="3.42" from="86572097#0" to="-224324790#0" />
    <trip id="343" depart="3.43" from="99885702" to="24186190#2" />
    <trip id="344" depart="3.44" from="222636180" to="222767225#4" />
    <trip id="345" depart="3.45" from="10755724#0" to="-228709329#2" />
    <trip id="346" depart="3.46" from="228711976#0" to="-224330162#2" />
    <trip id="347" depart="3.47" from="10755724#0" to="25911282#5" />
    <trip id="348" depart="3.48" from="50338298#0" to="10755724#1" />
    <trip id="349" depart="3.49" from="-273222779#1" to="10707276#1" />
    <trip id="350" depart="3.50" from="-228713995#0" to="176335378#1" />
    <trip id="351" depart="3.51" from="100700742#4" to="-273222783#1" />
    <trip id="352" depart="3.52" from="10712818#3" to="222636411" />
    <trip id="353" depart="3.53" from="87307115#1" to="201479199#3" />
    <trip id="354" depart="3.54" from="-201502181" to="-223518167" />
    <trip id="355" depart="3.55" from="222111135#11" to="-223518167" />
    <trip id="356" depart="3.56" from="224334757" to="201479197#0" />
    <trip id="357" depart="3.57" from="224334704#2" to="-224344471#9" />
    <trip id="358" depart="3.58" from="-224324810#1" to="233936815#4" />
    <trip id="359" depart="3.59" from="149779629#1" to="-87307065" />
    <trip id="360" depart="3.60" from="50338298#0" to="201500281#0" />
    <trip id="361" depart="3.61" from="199894465#0" to="180610757#0" />
    <trip id="362" depart="3.62" from="87293184" to="-87307127" />
    <trip id="363" depart="3.63" from="-222767225#9" to="-87307010#1" />
    <trip id="364" depart="3.64" from="224320542#1" to="201479447#5" />
    <trip id="365" depart="3.65" from="10755724#0" to="24395750#0" />
    <trip id="366" depart="3.66" from="176295442" to="99880426#7" />
    <trip id="367" depart="3.67" from="39461988#0" to="99880426#5" />
    <trip id="368" depart="3.68" from="10755724#0" to="299883324#0" />
    <trip id="369" depart="3.69" from="275467302#0" to="223517394" />
    <trip id="370" depart="3.70" from="-201479191#2" to="-224371165" />
    <trip id="371" depart="3.71" from="10610742#1" to="228714447#0" />
    <trip id="372" depart="3.72" from="245394925#6" to="224334702" />
    <trip id="373" depart="3.73" from="-224324810#0" to="50338694#0" />
    <trip id="374" depart="3.74" from="99880426#4-AddedOffRampEdge" to="224320551#4" />
    <trip id="375" depart="3.75" from="-222773446#5" to="-222609122#1" />
    <trip id="376" depart="3.76" from="-180610664#2" to="-87307065" />
    <trip id="377" depart="3.77" from="-228710150#3" to="149779024" />
    <trip id="378" depart="3.78" from="224327178#1" to="244552748#1" />
    <trip id="379" depart="3.79" from="25912689" to="224343304#1" />
    <trip id="380" depart="3.80" from="177014098#0" to="156663255#4" />
    <trip id="381" depart="3.81" from="-224324783#3" to="224334769#5" />
    <trip id="382" depart="3.82" from="228710159" to="86572097#6" />
    <trip id="383" depart="3.83" from="-99362333#1" to="-222778224" />
    <trip id="384" depart="3.84" from="201479195#5" to="89418808" />
    <trip id="385" depart="3.85" from="-223519662#1" to="-201479200#1" />
    <trip id="386" depart="3.86" from="88376151#1" to="89418695#1" />
    <trip id="387" depart="3.87" from="86572097#3" to="-200764164#4" />
    <trip id="388" depart="3.88" from="222773434#7" to="223517394" />
    <trip id="389" depart="3.89" from="167276187#0" to="278573136#0" />
    <trip id="390" depart="3.90" from="224371162#0" to="-228709889#0" />
    <trip id="391" depart="3.91" from="224343304#1" to="-201576134" />
    <trip id="392" depart="3.92" from="87307024#2" to="228710172#1" />
    <trip id="393" depart="3.93" from="149780035#1" to="99880426#0" />
    <trip id="394" depart="3.94" from="224324773#7" to="180610664#1" />
    <trip id="395" depart="3.95" from="200764200#0" to="228710166#1" />
    <trip id="396" depart="3.96" from="224343291#0" to="87307264#0" />
    <trip id="397" depart="3.97" from="201479200#1" to="39297529" />
    <trip id="398" depart="3.98" from="223517373#2" to="155406656" />
    <trip id="399" depart="3.99" from="-180610785" to="224324817#2" />
    <trip id="400" depart="4.00" from="199894477#5" to="99349236" />
    <trip id="401" depart="4.01" from="99885702" to="100242800#2" />
    <trip id="402" depart="4.02" from="-100700558#0" to="10611134#1" />
    <trip id="403" depart="4.03" from="-228711962#3" to="224324846#3" />
    <trip id="404" depart="4.04" from="10611120#6" to="99045844#3" />
    <trip id="405" depart="4.05" from="222721813#11-AddedOnRampEdge" to="223639444#3" />
    <trip id="406" depart="4.06" from="24036942#1" to="201500523#2" />
    <trip id="407" depart="4.07" from="233936815#0" to="233936815#9" />
    <trip id="408" depart="4.08" from="50338694#0" to="201576145#3" />
    <trip id="409" depart="4.09" from="228711967" to="-201479199#1" />
    <trip id="410" depart="4.10" from="-286783502" to="-228710151#4" />
    <trip id="411" depart="4.11" from="233936815#0" to="224337206#0" />
    <trip id="412" depart="4.12" from="10611120#2" to="24455895#1" />
    <trip id="413" depart="4.13" from="-99370703" to="228710183#3" />
    <trip id="414" depart="4.14" from="99045814#5" to="99892511#2" />
    <trip id="415" depart="4.15" from="24455895#0" to="-195150399#0" />