<?xml version="1.0"?>
<!-- generated on 2014-12-29 22:22:21.762666 by $Id: randomTrips.py 16365 2014-05-13 08:50:42Z namdre $ 
  options: -n map.net.xml -p 1 -b 0 -e 50 -l -o map.trips.xml
-->
<trips>
    <trip id="0" depart="0.00" from="175565015#2" to="-161671995#0" />
    <trip id="1" depart="1.00" from="-96823244#3" to="-96823255" />
    <trip id="2" depart="2.00" from="96823252#2" to="96823252#0" />
    <trip id="3" depart="3.00" from="-96823249#0" to="161671995#2" />
    <trip id="4" depart="4.00" from="-96823257" to="-161671995#2" />
    <trip id="5" depart="5.00" from="-96823257" to="24448028#1" />
    <trip id="6" depart="6.00" from="-24511548#2" to="-96823243" />
    <trip id="7" depart="7.00" from="-96823244#5" to="161671995#2" />
    <trip id="8" depart="8.00" from="-96823244#5" to="96823249#1" />
    <trip id="9" depart="9.00" from="-24448028#1" to="96823249#1" />
    <trip id="10" depart="10.00" from="96823245" to="-96823256" />
    <trip id="11" depart="11.00" from="96823254#3" to="-96823244#5" />
    <trip id="12" depart="12.00" from="96823254#3" to="96823244#5" />
    <trip id="13" depart="13.00" from="-96823251" to="-96823249#1" />
    <trip id="14" depart="14.00" from="-24448028#0" to="24448028#1" />
    <trip id="15" depart="15.00" from="161671995#0" to="-161671995#0" />
    <trip id="16" depart="16.00" from="96823254#0" to="-24511548#0" />
    <trip id="17" depart="17.00" from="-96823256" to="-24511548#0" />
    <trip id="18" depart="18.00" from="161671995#2" to="24511548#1" />
    <trip id="19" depart="19.00" from="-96823255" to="96823249#0" />
    <trip id="20" depart="20.00" from="-96823243" to="24448028#2" />
    <trip id="21" depart="21.00" from="96823257" to="96823256" />
    <trip id="22" depart="22.00" from="-175565015#2" to="-96823249#1" />
    <trip id="23" depart="23.00" from="-24448028#2" to="96823252#2" />
    <trip id="24" depart="24.00" from="96823252#1" to="-24448028#1" />
    <trip id="25" depart="25.00" from="96823249#1" to="96823243" />
    <trip id="26" depart="26.00" from="-24448028#2" to="96823252#0" />
    <trip id="27" depart="27.00" from="24448028#2" to="-96823252#2" />
    <trip id="28" depart="28.00" from="175565015#2" to="-96823245" />
    <trip id="29" depart="29.00" from="-96823252#1" to="-24511548#1" />
    <trip id="30" depart="30.00" from="-96823244#5" to="-96823244#5" />
    <trip id="31" depart="31.00" from="161671995#2" to="96823255" />
    <trip id="32" depart="32.00" from="161671995#2" to="96823254#3" />
    <trip id="33" depart="33.00" from="96823244#6" to="24448947#2" />
    <trip id="34" depart="34.00" from="-96823243" to="96823244#6" />
    <trip id="35" depart="35.00" from="24448028#1" to="96823249#2" />
    <trip id="36" depart="36.00" from="-175565015#2" to="-96823244#5" />
    <trip id="37" depart="37.00" from="161671995#2" to="24448028#1" />
    <trip id="38" depart="38.00" from="-96823252#2" to="-96823257" />
    <trip id="39" depart="39.00" from="-161671995#2" to="97817445#3" />
    <trip id="40" depart="40.00" from="-96823244#0" to="97817445#1" />
    <trip id="41" depart="41.00" from="-161671995#2" to="-175565015#0" />
    <trip id="42" depart="42.00" from="96823245" to="97817445#1" />
    <trip id="43" depart="43.00" from="-161671995#2" to="96823244#0" />
    <trip id="44" depart="44.00" from="-24511548#3" to="-96823244#2" />
    <trip id="45" depart="45.00" from="96823254#3" to="175565015#2" />
    <trip id="46" depart="46.00" from="-96823250" to="-24511548#1" />
    <trip id="47" depart="47.00" from="96823252#1" to="24511548#2" />
    <trip id="48" depart="48.00" from="96823244#5" to="96823244#4" />
    <trip id="49" depart="49.00" from="-96823252#1" to="96823249#1" />
</trips>