<?xml version="1.0" encoding="UTF-8"?>

<!-- generated on Fri Jan  2 11:19:16 2015 by SUMO duarouter Version 0.19.0
<?xml version="1.0" encoding="UTF-8"?>

<configuration xmlns:xsi="http://www.w3.org/2001/XMLSchema-instance" xsi:noNamespaceSchemaLocation="http://sumo-sim.org/xsd/duarouterConfiguration.xsd">

    <input>
        <net-file value="map.net.xml"/>
        <trip-files value="map.trips.xml"/>
    </input>

    <output>
        <output-file value="map.rou.xml"/>
    </output>

    <processing>
        <ignore-errors value="true"/>
    </processing>

    <time>
        <begin value="0"/>
        <end value="50.0"/>
    </time>

    <report>
        <no-step-log value="true"/>
    </report>

</configuration>
-->

<routes xmlns:xsi="http://www.w3.org/2001/XMLSchema-instance" xsi:noNamespaceSchemaLocation="http://sumo-sim.org/xsd/routes_file.xsd">
    <vehicle id="0" depart="0.00">
        <route edges="24502467#4-AddedOffRampEdge 24502467#5 24502467#7 24502467#7-AddedOffRampEdge 24502467#8 245394925#6 245394925#6-AddedOffRampEdge 245394925#7 245394925#8 245394925#9 222721809#1 222721809#2 10712891#1 10712891#2 99810906#0 99810906#1-AddedOnRampEdge 99810906#1 99810906#1-AddedOffRampEdge 99810906#2 236425304#0 236425304#1 88376151#1 -180112219#1 180112226#0 180112226#1 180112226#2 180112217 180112223#1 180610764#0 180610764#1 99045807#1 98885228#5 98885228#6 98885228#7 99045809#0 105309213#0 105309213#1 99810855#5 99810855#6 99810855#7 100132657 99810857#5 99054809 100132659#5 100132659#6 100132659#7 100132659#8 100132659#1 99050672#0 276687858 276687859#4 276687868 276687861#4 276687869"/>
    </vehicle>
    <vehicle id="1" depart="1.00">
        <route edges="-201500523#2 -201500520 201500523#3 -222773447 222773434#1 222773425#1 89382499#2 89382499#3 222773430#4 222773430#5 222773430#6 222773437#0 222773437#1-AddedOnRampEdge 222773437#1 89382514#2 89382514#3 89382514#4 89382506#0 222723824+89382506#1 89382506#3 87307075#3 87307075#4 87307075#5 222723829#0 222723826#1+222723829#1 222723829#2 222723829#4 222111139 222111162#3 222111162#4 222111162#5 222111162#6 222111162#7 222111172#0 222111172#1 222111172#2-AddedOnRampEdge 222111172#2 222111152+222111172#3 222111172#4 222111172#4-AddedOffRampEdge 222111172#5 222111172#6-AddedOnRampEdge 222111172#6 222111177 222111172#8-AddedOnRampEdge 222111172#8 10713000#5 10713000#6 10713000#1 10713058#0 10713058#0-AddedOffRampEdge 87306971 87307064#0 87307064#1 87307064#2 87307064#3 87307064#5 87307082 87307100#6 87307100#7 87307100#0 87307235 87307190#0 -87307136#3 87307046"/>
    </vehicle>
    <vehicle id="2" depart="2.00">
        <route edges="10478329 10478199#2-AddedOnRampEdge 10478199#2 10478199#2-AddedOffRampEdge 10478199#3 10478199#4-AddedOnRampEdge 10478199#4 4009554#1-AddedOnRampEdge 4009554#1 4009554#1-AddedOffRampEdge 4009554#2 4009554#3 10712854#0 10712854#0-AddedOffRampEdge 224277995#0 224277995#0-AddedOffRampEdge 224277983 99810906#1-AddedOnRampEdge 99810906#1 99810906#1-AddedOffRampEdge 224324871 224324864 224324785#3 224320551#2 224320551#2-AddedOffRampEdge 224320551#3 224320551#4-AddedOnRampEdge 224320551#4 224320551#4-AddedOffRampEdge 224324799#0 224324799#1-AddedOnRampEdge 224324799#1 224324799#2 224324799#2-AddedOffRampEdge 224324799#3 224324799#4 224324799#5-AddedOnRampEdge 224324799#5 224324836#1-AddedOnRampEdge 224324836#1 224324875 224324880#1-AddedOnRampEdge 224324880#1 224324841#0 224324841#0-AddedOffRampEdge 224324841#1"/>
    </vehicle>
    <vehicle id="4" depart="4.00">
        <route edges="224343263#7 224343263#8 224343263#9 -224343277#6 -224343277#4 224343303#0 224343303#1 224343303#2 -224343206#1 -224343206#0 -24396747#1 -24396747#0 -224343216#12 -224343216#11 -224343216#10+-224343292#1 -224343216#8 -224343216#6 -224343216#5 -224343216#4 -224343216#3 -224343216#1 -224343216#0 24395370#1 224343311#4 224343311#5 224343311#1 24395305#0 24395305#0-AddedOffRampEdge 24395305#1 25911282#8-AddedOnRampEdge 25911282#8 25911282#8-AddedOffRampEdge 10610747 10610747-AddedOffRampEdge 24287283#0 24287283#1-AddedOnRampEdge 24287283#1 10610751 10610744#2-AddedOnRampEdge 10610744#2 10610744#2-AddedOffRampEdge 10610746 289639262#3-AddedOnRampEdge 289639262#3 289639262#4-AddedOnRampEdge 289639262#4 289639260#3-AddedOnRampEdge 289639260#3 289639260#3-AddedOffRampEdge 29009861#0 177014101#3 177014101#4 88376147#0 88376147#0-AddedOffRampEdge 88376147#1 88376147#2-AddedOnRampEdge 88376147#2 88376139#4 98836474#0 98836474#0-AddedOffRampEdge 98836474#1 98836474#2-AddedOnRampEdge 98836474#2 98836475#1 99810829 -99810188#1 -99810188#0 99810187 99730693#7 99730693#0 99730693#1 99810189 -98882849#2 -100700514#11 -100700514#10 -100700514#9 -100700514#8 -100700514#7 -100700514#6 98882847#2 99998573 98885194#1 99998577 -99037916#2 275463908#5 275463955#1"/>
    </vehicle>
    <vehicle id="5" depart="5.00">
        <route edges="10478960#1 10478960#2-AddedOnRampEdge 10478960#2 26037115 10479200#1-AddedOnRampEdge 10479200#1 10478605#1-AddedOnRampEdge 10478605#1"/>
    </vehicle>
    <vehicle id="7" depart="7.00">
        <route edges="-201500333 201500334#2 201500282#1 201500282#2 201500282#3 224324855#0 224324855#1 224324855#2 224324855#3 -222773372#2 -222773372#1 -222773429 -222773418#0 222773418#0"/>
    </vehicle>
    <vehicle id="11" depart="11.00">
        <route edges="222773393#2 -222843305+222843311 -24186190#2 24291528#0 24291528#3 -222842465#0 -222842477#1 -222773413#0 -222725831#8 -222725831#5 -222725831#3 -222725831#2 -222725831#1 -222725831#0 222773422#1 222773422#2 222773422#3-AddedOnRampEdge 222773422#3 233936815#9-AddedOnRampEdge 233936815#9 233936815#9-AddedOffRampEdge 233936815#10 10711040#0 10711040#0-AddedOffRampEdge 39999961 10713056#3 39297529 10713000#3 39297528#0 222111164+39297528#1 39297528#2 222111142+39297528#3 39297528#4 39297528#4-AddedOffRampEdge 39297528#5 222111162#1 222111162#2 222111162#3 222111162#4 222111162#5 222111135#0 222111135#1 222111135#2+222111163#0 222111135#3 222040728#0 222040729#1 222637857#4 222041373 222041364#2 222609123#2 222609138#2 222609114#0 222632226#1 222609138#6 222609120#0 222632224#0 222609137"/>
    </vehicle>
    <vehicle id="12" depart="12.00">
        <route edges="-99054940#1 -99054940#0 135702863 99730695#3 99730698 -99054937#1 -99054937#0 135702867 88376158#2-AddedOnRampEdge 88376158#2 88376139#2 88376139#3 88376139#4 88376139#5 88376139#6 98885239#0 98885239#1 98885239#2 98885239#3 98885239#4 177014103#2 177014103#3 177014103#4 24490007#0 24490007#0-AddedOffRampEdge 24490007#1 24490007#2-AddedOnRampEdge 24490007#2 98885234#3 98885234#4 98885234#5 24490012#0 224334769#20-AddedOnRampEdge 224334769#20 224334769#20-AddedOffRampEdge 224334769#21 99810903 10712883#1 10712883#2 10712880#1-AddedOnRampEdge 10712880#1 222721799+222721802#1 222721802#2 222721802#3 222721802#4 222721802#5-AddedOnRampEdge 222721802#5 222111133+222721802#6 222721802#7 222721802#8 222721802#8-AddedOffRampEdge 222721802#9 222111171#0 222111171#1 222111162#5 222111162#6 222111162#7 222111162#8 222111162#1 222111145 222111151#1-AddedOnRampEdge 222111151#1 222111151#2+222723804#1 222111151#3 87307075#7 87307075#1 222723807#0 222723807#1 222723807#2+222723811 222723807#3 222723807#3-AddedOffRampEdge 222723807#4 89382514#0 89382498#0 89382498#1-AddedOnRampEdge 89382498#1 89382498#2 222773430#8 222773430#1 222773430#2 222773398#0 222773398#1 222773398#2+222773417 222773398#3 233936815#7-AddedOnRampEdge 233936815#7 233936815#7-AddedOffRampEdge 222725845 222725845-AddedOffRampEdge 222773424 -24271819 24185953#5 24185953#1 -24185995 24036881#3 24036958 168742724#3 168742724#4 28213354#0 28213354#1 28213354#2 168742725 180610738 -180610738"/>
    </vehicle>
    <vehicle id="13" depart="13.00">
        <route edges="4009554#1-AddedOffRampEdge 4009554#2 4009554#3 10712854#0 10712854#0-AddedOffRampEdge 224277995#0 224277995#0-AddedOffRampEdge 224277983 99810906#1-AddedOnRampEdge 99810906#1 99810906#1-AddedOffRampEdge 99810906#2 99810906#3 99810906#4-AddedOnRampEdge 99810906#4 99810906#4-AddedOffRampEdge 224334737 99810906#6-AddedOnRampEdge 99810906#6 99810906#7 99810906#7-AddedOffRampEdge 224334710 99810906#9-AddedOnRampEdge 99810906#9 99810906#9-AddedOffRampEdge 201173355#0 50338694#6-AddedOnRampEdge 50338694#6 224334749 50338694#8-AddedOnRampEdge 50338694#8 50338694#8-AddedOffRampEdge 224334717 50338694#10-AddedOnRampEdge 50338694#10 155403497#4-AddedOnRampEdge 155403497#4 50338677#0 50338677#0-AddedOffRampEdge 50338677#1 50338677#2-AddedOnRampEdge 50338677#2 99892440#1 99892440#2 99892440#3 99892440#4 99892440#5 99884542#0 99884542#1-AddedOnRampEdge 99884542#1 99884542#1-AddedOffRampEdge 155396119 -155396117#1 -155396597#7 -149780417#7 -149780417#6 149780417#6"/>
    </vehicle>
    <vehicle id="14" depart="14.00">
        <route edges="155309518#0 155309518#1 155309522 24382206#2 224334769#0 224334769#0-AddedOffRampEdge 224330169 224334769#2 224334769#3 224334769#5 224334769#7-AddedOnRampEdge 224334769#7 224334769#7-AddedOffRampEdge 224334731 224334769#9 224334769#10 224334769#11 224334740 224334769#13 224334733 224334720 100132666#4 100132666#5 100132666#6 224334702 99810855#7 99810855#1 99810855#2 99810854 177014103#0 177014106#0 177014106#0-AddedOffRampEdge 177014106#1 177014106#2 177014106#3 88376139#0 88376139#1 88376139#2 43945192#0 43945192#0-AddedOffRampEdge 275468427 275468429#0 275468429#1 -275469096 -100700680#2 -100700680#1 -100700680#0"/>
    </vehicle>
    <vehicle id="17" depart="17.00">
        <route edges="99885723#6 99362298 99369112#2-AddedOnRampEdge 99369112#2 99887038#2 99887038#3 99887038#4 99362338#0 99362338#1 99885766#2 99885766#3 99885766#4 99885766#5 99885766#6 99362369#0 99362369#1 99886973#3 24495101 99892511#2 99892511#3 99892511#4 99358494#0 228714011#0 -228714011#0"/>
    </vehicle>
    <vehicle id="18" depart="18.00">
        <route edges="50338677#1 50338677#2-AddedOnRampEdge 50338677#2 99892440#1 99362371 99886973#7 99886973#0 99886973#1 99884540#0 99884540#1 99885766#8 99885766#1 99885766#2 99370704 99349233#1-AddedOnRampEdge 99349233#1 99349233#2 99349233#3 99349233#3-AddedOffRampEdge 99349233#4 99349233#5 99349233#6-AddedOnRampEdge 99349233#6 99349233#7 99349233#8 99349233#8-AddedOffRampEdge 99367772 99884586#7 99884586#0 99884586#1 99349236 10478199#4-AddedOnRampEdge 10478199#4 4009554#1-AddedOnRampEdge 4009554#1 4009554#1-AddedOffRampEdge 4009554#2 4009554#3 10712854#0 10712854#0-AddedOffRampEdge 224277995#0 224277995#0-AddedOffRampEdge 224277983 99810906#1-AddedOnRampEdge 99810906#1 99810906#1-AddedOffRampEdge 99810906#2 236425304#0 236425304#1 88376151#1 -180112219#1 180112226#0 180112226#1 180112226#2 180112217 180112223#1 180610764#0 -180610764#0"/>
    </vehicle>
    <vehicle id="19" depart="19.00">
        <route edges="-222773419#4 222773435#0 222773380#0 222773418#0 222773429 222773372#1 222773372#2 -224324855#3 -224324855#2 -224324855#1 -224324855#0 201500282#0 201500282#1 89382503#0 89382503#0-AddedOffRampEdge 89382503#1 89382511#5 89382508#0 89382508#1-AddedOnRampEdge 89382508#1 89382508#2-AddedOnRampEdge 89382508#2 10611120#5-AddedOnRampEdge 10611120#5 10611120#5-AddedOffRampEdge 10478960#0 10478960#0-AddedOffRampEdge 10478960#1 10478960#2-AddedOnRampEdge 10478960#2 10479198 10477951#2-AddedOnRampEdge 10477951#2 10477951#2-AddedOffRampEdge 10478073 10478098#3-AddedOnRampEdge 10478098#3 10478199#1 10478199#2-AddedOnRampEdge 10478199#2 10478199#2-AddedOffRampEdge 99349235 99884586#3 99884558 99885709#1 99885709#2 99885709#3 99350867#0 99350867#0-AddedOffRampEdge 99350867#1 99350867#2-AddedOnRampEdge 99350867#2 99886891#3 99886891#4 99886891#5 99353801 99886920#3 99886920#4 99886920#5 99885779#0 99885779#0-AddedOffRampEdge 99358513 99892498#3 99892498#4 99892498#5 99892498#6 99892498#7 228713995#0 228713992#0 228713992#1 -228714016#1 -228714016#0"/>
    </vehicle>
    <vehicle id="23" depart="23.00">
        <route edges="-87307149#1 -87307149#0 87307085 87307228#1 87307228#2 87307228#3 87306967 87306989#0 87306989#1 87306989#2 87307276 10713000#1 10713000#2 10713000#3 39297528#0 222111164+39297528#1 39297528#2 222111142+39297528#3 39297528#4 39297528#4-AddedOffRampEdge 39297528#5 222111162#1 222111162#2 222111162#3 222111176#0 222111156+222111176#1 222111176#2 222111165+222111176#3 222111176#4 222111176#4-AddedOffRampEdge 222111176#5 222111176#5-AddedOffRampEdge 222111176#6 222111176#7+222721804 222111176#8 222721809#1 222721809#2 10712891#1 10712891#2 99810906#0 99810906#1-AddedOnRampEdge 99810906#1 99810906#1-AddedOffRampEdge 99810906#2 99810906#3 99810906#4-AddedOnRampEdge 99810906#4 99810906#4-AddedOffRampEdge 224334737 99810906#6-AddedOnRampEdge 99810906#6 99810906#7 99810906#7-AddedOffRampEdge 224334710 99810906#9-AddedOnRampEdge 99810906#9 99810906#9-AddedOffRampEdge 99810906#10 155310142#8 155310142#7-AddedOnRampEdge 155310142#7 155310142#7-AddedOffRampEdge 155406848#0 155406848#1 155406848#2 155406848#2-AddedOffRampEdge 155406847#1 155406847#0-AddedOnRampEdge 155406847#0 155406844#2 155407224 -224330158 224330139#1 155405928#5-AddedOnRampEdge 155405928#5 224330168#0 224330168#1 155405928#7 155405928#8"/>
    </vehicle>
    <vehicle id="24" depart="24.00">
        <route edges="24395768#0 24395768#1 24395768#2-AddedOnRampEdge 24395768#2 24395543#5 24395543#0 24395543#1 24395549#0 24395549#0-AddedOffRampEdge 24395549#1 24395549#2-AddedOnRampEdge 24395549#2 224344458+24395549#3 24395549#4 224343311#1 224343311#2 24395370#0 224343216#0 224343216#1 224343216#3 224343216#4 224343216#5 224343216#6 224343216#8 224343216#10+224343292#1 224343216#11 224343216#12 224343216#13 224343216#14 -224343264+224343216#15 224343216#16 224343216#17 224343216#18 224343216#19 224343216#20 224343216#21+224343307 224343216#22 24550170 24550166#3 24550166#4 24550166#5 -200764163#5 -200764163#4 -200764163#3 -200764163#2 200764222#0 228709883 228709881#2 -228709874#2 228709887#0 228709879#0 -228709879#0"/>
    </vehicle>
    <vehicle id="26" depart="26.00">
        <route edges="222633886#2 222633886#3 222633887#1 222636174#3 222636174#4 222636174#5 222636150 221976979#16-AddedOnRampEdge 221976979#16 221976979#17 221976979#17-AddedOffRampEdge 221976979#18 221976979#19 221976979#20 221976979#21 221976979#21-AddedOffRampEdge 221976979#22 245394925#2 245394925#3 245394925#4 245394925#6 245394925#6-AddedOffRampEdge 245394925#7 245394925#8 245394925#9 222721809#1 222721809#2 10712891#1 10712891#2 99810906#0 99810906#1-AddedOnRampEdge 99810906#1 99810906#1-AddedOffRampEdge 99810906#2 99810906#3 99810906#4-AddedOnRampEdge 99810906#4 99810906#4-AddedOffRampEdge 224334737 99810906#6-AddedOnRampEdge 99810906#6 99810906#7 99810906#7-AddedOffRampEdge 224334710 99810906#9-AddedOnRampEdge 99810906#9 99810906#9-AddedOffRampEdge 201173355#0 50338694#6-AddedOnRampEdge 50338694#6 224334749 50338694#8-AddedOnRampEdge 50338694#8 50338694#8-AddedOffRampEdge 224334717 50338694#10-AddedOnRampEdge 50338694#10 155403497#4-AddedOnRampEdge 155403497#4 50338677#0 50338677#0-AddedOffRampEdge 99892483 99892468#7 99892468#0 99892468#1 99367779 99892490#1 99892490#2 99892490#3 99362336 99887038#8 99367780"/>
    </vehicle>
    <vehicle id="28" depart="28.00">
        <route edges="222603473#1 222721813#9 222721813#9-AddedOffRampEdge 222721813#10 222721813#11-AddedOnRampEdge 222721813#11 222721813#12 222721813#13 222721813#14 10611501 245394923#0 245394923#1-AddedOnRampEdge 245394923#1 289639262#1-AddedOnRampEdge 289639262#1 289639262#2 289639262#3-AddedOnRampEdge 289639262#3 289639262#4-AddedOnRampEdge 289639262#4 289639260#3-AddedOnRampEdge 289639260#3 289639260#3-AddedOffRampEdge 289639260#4 289639260#5-AddedOnRampEdge 289639260#5 289639260#5-AddedOffRampEdge 289639260#8 289639260#9-AddedOnRampEdge 289639260#9 289639260#9-AddedOffRampEdge 289639260#10 25911279#5 25911279#6 25911279#8 25911279#9 25911279#11 25911279#12 25911279#2 25911282#0 25911282#1-AddedOnRampEdge 25911282#1 25911282#2 25911282#2-AddedOffRampEdge 24395355 24550173#0-AddedOnRampEdge 24550173#0 24550173#1 24550166#5 24550166#6 24550166#7 24550166#1 24550168#0 224343249#0 -224343194#5 -224343194#4 -224343194#3 -224343194#2 -224343202#1 -224343202#0 -224343204#0"/>
    </vehicle>
    <vehicle id="29" depart="29.00">
        <route edges="-199901662 199901662 224336923#0 224336923#1 224336923#2 100240909#5 100240909#6 100240909#7 199894456#0 199894458 199894472#3 199894475 -199894480 199894479#0 199894479#1 199894479#2 199894479#3 199894479#4 199894479#5 199894479#6 224334760#0 224334769#11 224334740 224334769#13 224334733 224334769#15 224334769#16-AddedOnRampEdge 224334769#16 224334769#17-AddedOnRampEdge 224334769#17 224334769#18 224334769#19 224334769#20-AddedOnRampEdge 224334769#20 224334769#20-AddedOffRampEdge 224334769#21 99810903 10712883#1 224278000 10712818#2 10712818#3 10712818#4-AddedOnRampEdge 10712818#4 10611120#3-AddedOnRampEdge 10611120#3 10611120#3-AddedOffRampEdge 89382516#0 89382516#0-AddedOffRampEdge 89382516#1 89382516#1-AddedOffRampEdge 89382516#2 89382511#7 89382511#8 89382511#1 89382511#2 89382511#3 89382512#0 89382512#1-AddedOnRampEdge 89382512#1 201500282#3 224324855#0 224324855#1 224324855#2 224324855#3 -222773372#2 -222773372#1 -222773372#0 201500280#9"/>
    </vehicle>
    <vehicle id="30" depart="30.00">
        <route edges="222773387#1 222767227#1 222773430#2 222773430#3 222773430#4 222773430#5 222773430#6 222773437#0 222773437#1-AddedOnRampEdge 222773437#1 89382514#2 89382514#3 89382514#4 89382506#0 222723824+89382506#1 89382506#3 87307075#3 87307075#4 87307075#5 222723829#0 222723826#1+222723829#1 222723829#2 222723829#4 222723829#5 222111156+222111176#1 222111176#2 222111165+222111176#3 222111176#4 222111176#4-AddedOffRampEdge 222111176#5 222111176#5-AddedOffRampEdge 222111176#6 222111176#7+222721804 222111176#8 222721809#1 222721809#2 10712891#1 10712891#2 99810906#0 99810906#1-AddedOnRampEdge 99810906#1 99810906#1-AddedOffRampEdge 99810906#2 236425304#0 236425304#1 88376151#1 88376151#2 88376151#3 98885234#7 98885234#8 98885234#1 98885234#2 98885234#3 88376136#0 88376136#0-AddedOffRampEdge 88376136#1 88376136#2-AddedOnRampEdge 88376136#2 78982759#1 78982759#2 78982759#3 88376137#0 88376137#0-AddedOffRampEdge 88376137#1 88376137#2-AddedOnRampEdge 88376137#2 88376137#2-AddedOffRampEdge 88376137#3 88376137#4-AddedOnRampEdge 88376137#4 78982778#5 99998588 99037916#0 -275463909#0 275463908#7 -275463912#3"/>
    </vehicle>
    <vehicle id="31" depart="31.00">
        <route edges="222637836#1 222637852#3 222637852#4 222637852#5 222637852#6 222637852#7 222637879#0 -222632224#2 -222632224#1 -222632224#0 222609120#1 222609138#8 222609133#0 222040707#4 222041366#5 222041366#3+222041371#0 222041366#2 222111171#0 222111171#1 222111162#5 222111162#6 222111162#7 222111162#8 222111162#1 222111145 222111151#1-AddedOnRampEdge 222111151#1 222111151#2+222723804#1 222111151#3 87307075#7 87307075#1 222723807#0 222723807#1 222723807#2+222723811 222723807#3 222723807#3-AddedOffRampEdge 222723807#4 89382514#0 89382498#0 89382498#1-AddedOnRampEdge 89382498#1 89382498#2 222773430#8 222773430#1 222773430#2 222773398#0 222773398#1 222773398#2+222773417 222773398#3 233936815#7-AddedOnRampEdge 233936815#7 233936815#7-AddedOffRampEdge 222725845 222725845-AddedOffRampEdge 222773424 -24271819 24185953#5 24185953#1 24185953#2 24185953#3 24271816"/>
    </vehicle>
    <vehicle id="32" depart="32.00">
        <route edges="-224324800#2 -224324800#1 -224324800#0 224324862#3 -224324810#0 -224324776#5 -224324776#4 -224324776#3 -224324851#0 224324790#3 224324790#4 224324790#4-AddedOffRampEdge 224320551#0 224324785#0 224324785#2 -224324864 224324787 99810906#4-AddedOnRampEdge 99810906#4 99810906#4-AddedOffRampEdge 224334737 99810906#6-AddedOnRampEdge 99810906#6 99810906#7 99810906#7-AddedOffRampEdge 224334710 99810906#9-AddedOnRampEdge 99810906#9 99810906#9-AddedOffRampEdge 201173355#0 50338694#6-AddedOnRampEdge 50338694#6 224334749 50338694#8-AddedOnRampEdge 50338694#8 50338694#8-AddedOffRampEdge 224334717 50338694#10-AddedOnRampEdge 50338694#10 155403497#4-AddedOnRampEdge 155403497#4 50338677#0 50338677#0-AddedOffRampEdge 99892483 99892468#7 99892468#0 99892468#1 99892468#2 99892468#3 99884547#0 99884547#2 99884547#3 99886973#1 99884540#0 99884540#1 99885766#8 99885766#1 99885766#2 99885766#3 99885766#4 24494640#0 24494640#1-AddedOnRampEdge 24494640#1 -99365126#2 -99365082#1"/>
    </vehicle>
    <vehicle id="36" depart="36.00">
        <route edges="99880426#3 99880426#4-AddedOnRampEdge 99880426#4 99880426#4-AddedOffRampEdge 10477951#0 10477951#0-AddedOffRampEdge 10477951#1 10477951#2-AddedOnRampEdge 10477951#2 10477951#2-AddedOffRampEdge 10478073 10478098#3-AddedOnRampEdge 10478098#3 10478219 10478271#2-AddedOnRampEdge 10478271#2 10478271#3 10478271#4-AddedOnRampEdge 10478271#4 233936815#5-AddedOnRampEdge 233936815#5 233936815#5-AddedOffRampEdge 233936815#6 233936815#7-AddedOnRampEdge 233936815#7 233936815#7-AddedOffRampEdge 233936815#8 233936815#9-AddedOnRampEdge 233936815#9 233936815#9-AddedOffRampEdge 233936815#10 10711040#0 10711040#0-AddedOffRampEdge 39999961 10713056#3 10713056#4 10713056#5 50165983#0 50165983#0-AddedOffRampEdge 50165983#1 50165983#2-AddedOnRampEdge 50165983#2 50165559#2 50165559#3 50165559#4 50165984"/>
    </vehicle>
    <vehicle id="37" depart="37.00">
        <route edges="-201500280#6 -201500280#5 -201500280#4 -201500280#3 -222773426#2 -222773426#1 -222773426#0 -222773434#5 222773425#0 222773425#1 89382499#2 89382499#3 222773430#4 222773430#5 222773430#6 222773437#0 222773437#1-AddedOnRampEdge 222773437#1 89382514#2 89382514#3 89382514#4 89382506#0 222723824+89382506#1 89382506#3 87307075#3 87307075#4 87307075#5 222723829#0 222723826#1+222723829#1 222723829#2 222723829#4 222111139 222111162#3 222111162#4 222111162#5 222111135#0 222111135#1 222111135#2+222111163#0 222111135#3 222111135#4 222111135#5-AddedOnRampEdge 222111135#5 222111135#6+222111168 222111135#8 222111135#9 222111135#10-AddedOnRampEdge 222111135#10 222111135#10-AddedOffRampEdge 222111135#11 222111135#12 222111135#13 87293214#1 87293214#2 87293214#2-AddedOffRampEdge 223517450#0 223517450#1 223517450#2 -223517419#3 -223517419#2 -223517333#3 223517331#0 223517331#1 -223517471#2 223517395 -223517333#0 -223517439#0"/>
    </vehicle>
    <vehicle id="40" depart="40.00">
        <route edges="228710351#3 -228710337#1 -228710337#0 -228710345#1 228710349#0 -228710338 -228710350#1 -228710350#0 200764164#5 24455895#1 24381662#4 50338298#0 50338298#0-AddedOffRampEdge 50338298#1 25911279#2 25911279#3 25911279#5 50338692#0 50338692#1-AddedOnRampEdge 50338692#1 50338696#5 50338696#6 50338696#7 50338696#0 50338696#1 199803977#0 199803977#0-AddedOffRampEdge 199803977#1 199803538#4 199803538#5 199803538#6 199802938#0 199802938#1-AddedOnRampEdge 199802938#1 199802938#1-AddedOffRampEdge 199802938#2 199802822#3 199802822#4 199802822#5 199816842#0 199816842#1-AddedOnRampEdge 199816842#1 199816842#2 174751315#2-AddedOnRampEdge 174751315#2 174751315#2-AddedOffRampEdge 174751332 174751307#1-AddedOnRampEdge 174751307#1 156663255#4-AddedOnRampEdge 156663255#4"/>
    </vehicle>
    <vehicle id="41" depart="41.00">
        <route edges="-224330154 224330154 160488143 155406463#7 155406463#0 155406463#1 155406467 155405086#4 155405086#5 155405086#6 155405084#0 -155405090#3 -155405090#2 -155405090#1 -155405090#0 155405093 155404694#5 155404692#4 155404692#4-AddedOffRampEdge 155404692#3 155404692#2-AddedOnRampEdge 155404692#2 155407191 155404113#3-AddedOnRampEdge 155404113#3 155403497#2 155403497#3 155403497#4-AddedOnRampEdge 155403497#4 50338677#0 50338677#0-AddedOffRampEdge 99892483 99892468#7 99892468#0 99892468#1 99367779 99892490#1 99892490#2 99892490#3 99362336 99887038#8 99887038#1 99887038#2 99887038#3 99887038#4 99362338#0 99369089 99349233#2 99349233#3 99349233#3-AddedOffRampEdge 99349233#4 99349233#5 99349233#6-AddedOnRampEdge 99349233#6 99349233#7 99349233#8 99349233#8-AddedOffRampEdge 99367772 99884586#7 99884586#0 99884586#1 99349236 10478199#4-AddedOnRampEdge 10478199#4 4009554#1-AddedOnRampEdge 4009554#1 4009554#1-AddedOffRampEdge 4009554#2 4009554#3 10712854#0 10712854#0-AddedOffRampEdge 224277995#0 224277995#0-AddedOffRampEdge 224277983 99810906#1-AddedOnRampEdge 99810906#1 99810906#1-AddedOffRampEdge 224324871 224324864 224324785#3 224320551#2 224320551#2-AddedOffRampEdge 224320540#0 224320540#1-AddedOnRampEdge 224320540#1 224320546#6-AddedOnRampEdge 224320546#6 224320546#7 224320546#8 224320546#9 224320546#10 224320546#10-AddedOffRampEdge 224320546#11"/>
    </vehicle>
    <vehicle id="42" depart="42.00">
        <route edges="222637854#2 222637871#3 222637871#3-AddedOffRampEdge 222637871#4 222637871#5 222603476#1 221976979#15 221976979#16-AddedOnRampEdge 221976979#16 221976979#17 221976979#17-AddedOffRampEdge 221976979#18 221976979#19 221976979#20 221976979#21 221976979#21-AddedOffRampEdge 221976979#22 245394925#2 245394925#3 245394925#4 245394925#6 245394925#6-AddedOffRampEdge 245394925#7 245394925#8 245394925#9 222721809#1 222721809#2 10712891#1 10712891#2 99810906#0 99810906#1-AddedOnRampEdge 99810906#1 99810906#1-AddedOffRampEdge 99810906#2 99810906#3 99810906#4-AddedOnRampEdge 99810906#4 99810906#4-AddedOffRampEdge 224334737 99810906#6-AddedOnRampEdge 99810906#6 99810906#7 99810906#7-AddedOffRampEdge 224334710 99810906#9-AddedOnRampEdge 99810906#9 99810906#9-AddedOffRampEdge 201173355#0 50338694#6-AddedOnRampEdge 50338694#6 224334749 50338694#8-AddedOnRampEdge 50338694#8 50338694#8-AddedOffRampEdge 224334717 50338694#10-AddedOnRampEdge 50338694#10 155403497#4-AddedOnRampEdge 155403497#4 50338677#0 50338677#0-AddedOffRampEdge 99892483 99892468#7 99892468#0 99892468#1 99892468#2 99892468#3 99884547#0 99884547#2 99884547#3 99886973#1 99886973#2 99886973#3 99886973#4 99886973#5 99886973#6 99886973#7 95984152#0 -286783502"/>
    </vehicle>
    <vehicle id="43" depart="43.00">
        <route edges="50220417#1 50220417#2-AddedOnRampEdge 50220417#2 50220417#2-AddedOffRampEdge 87307205#0 87307205#0-AddedOffRampEdge 50165538 50165555#6 50165555#0 50165546 50165559#0 50165982 10713056#1 10713056#2 10713056#3 39297529 10713000#3 39297528#0 222111164+39297528#1 39297528#2 222111142+39297528#3 39297528#4 39297528#4-AddedOffRampEdge 39297528#5 222111162#1 222111162#2 222111162#3 222111176#0 222111156+222111176#1 222111176#2 222111165+222111176#3 222111176#4 222111176#4-AddedOffRampEdge 222111176#5 222111176#5-AddedOffRampEdge 222111176#6 222111176#7+222721804 222111176#8 222721809#1 222721809#2 10712891#1 10712891#2 99810906#0 99810906#1-AddedOnRampEdge 99810906#1 99810906#1-AddedOffRampEdge 99810906#2 99810906#3 99810906#4-AddedOnRampEdge 99810906#4 99810906#4-AddedOffRampEdge 224334737 99810906#6-AddedOnRampEdge 99810906#6 99810906#7 99810906#7-AddedOffRampEdge 224334710 99810906#9-AddedOnRampEdge 99810906#9 99810906#9-AddedOffRampEdge 201173355#0 50338694#6-AddedOnRampEdge 50338694#6 224334749 50338694#8-AddedOnRampEdge 50338694#8 50338694#8-AddedOffRampEdge 224334717 50338694#10-AddedOnRampEdge 50338694#10 155403497#4-AddedOnRampEdge 155403497#4 50338677#0 50338677#0-AddedOffRampEdge 50338677#1 50338677#2-AddedOnRampEdge 50338677#2 99892440#1 99892440#2 99892440#3 99892440#4 99892440#5 99884542#0 99884542#1-AddedOnRampEdge 99884542#1 99884542#1-AddedOffRampEdge 155396119 -155396117#1 -155396597#7 149780417#8 149780417#10 149780734 149779271#2 149780414 149779427#1 149779426 -300269269"/>
    </vehicle>
    <vehicle id="45" depart="45.00">
        <route edges="228714006#2 -228713982#0 -228714004#0 99892498#1 99892498#2 99892498#3 99892498#4 99892498#5 99884555#0 99884555#1 99892511#4 99892511#5 99892511#6 99892511#7 24495104 99886973#5 99362370 99892440#3 50338680#0 50338680#0-AddedOffRampEdge 50338680#1 174277244 233936815#1-AddedOnRampEdge 233936815#1 233936815#1-AddedOffRampEdge 233936815#4 233936815#5-AddedOnRampEdge 233936815#5 233936815#5-AddedOffRampEdge 233936815#6 233936815#7-AddedOnRampEdge 233936815#7 233936815#7-AddedOffRampEdge 222725845 222725845-AddedOffRampEdge 222773424 -24271819 24185953#5 24185953#1 -24185995 24036881#3 24036881#4 24036881#0 24036881#1 24036881#2 24185995"/>
    </vehicle>
    <vehicle id="46" depart="46.00">
        <route edges="233936815#5 233936815#5-AddedOffRampEdge 233936815#6 233936815#7-AddedOnRampEdge 233936815#7 233936815#7-AddedOffRampEdge 222725845 222725845-AddedOffRampEdge 222773424 -24271819 24185953#5 24185953#1 24185953#2 24291568#0 24291568#1"/>
    </vehicle>
    <vehicle id="47" depart="47.00">
        <route edges="50220417#2-AddedOnRampEdge 50220417#2 50220417#2-AddedOffRampEdge 50220417#3 50220417#4-AddedOnRampEdge 50220417#4 50220417#5-AddedOnRampEdge 50220417#5 50220417#5-AddedOffRampEdge 50220417#6 50220417#6-AddedOffRampEdge 50220417#7 50220417#7-AddedOffRampEdge 50220417#8 50220417#9-AddedOnRampEdge 50220417#9 50220417#10-AddedOnRampEdge 50220417#10 50220417#11 50220417#12 50220417#12-AddedOffRampEdge 50220417#13 50220417#14-AddedOnRampEdge 50220417#14 50220417#15 50220417#16 50220417#16-AddedOffRampEdge 50220417#17 289639260#0 289639260#1-AddedOnRampEdge 289639260#1 289639260#1-AddedOffRampEdge 289639260#2 289639260#3-AddedOnRampEdge 289639260#3 289639260#3-AddedOffRampEdge 289639260#4 289639260#5-AddedOnRampEdge 289639260#5 289639260#5-AddedOffRampEdge 289639260#8 289639260#9-AddedOnRampEdge 289639260#9 289639260#9-AddedOffRampEdge 289639260#10 25911279#5 25911279#6 25911279#8 25911279#9 25911279#11 25911279#12 25911279#2 25911282#0 25911282#1-AddedOnRampEdge 25911282#1 25911282#2 25911282#2-AddedOffRampEdge 24395355 24550173#0-AddedOnRampEdge 24550173#0 24550173#1 24550166#5 24550166#6 24550166#7 24550166#1 24550168#0 24550168#1 -224343216#22 -224343216#21+-224343307 -224343216#20 -224343216#19 -224343216#18 -224343216#17 -224343216#16 -224343216#15+224343264 -224343216#14 -224343216#13 -224343216#12 -224343216#11 -224343216#10+-224343292#1 -224343216#8 -224344441#1 224344472#1 224344472#2 -224344448#1"/>
    </vehicle>
    <vehicle id="48" depart="48.00">