<additional>
<rerouter id="0" edges="206363058 -175565015#1" file="/home/sami/Programming/senior/Senior-Design/tollgate/output/map.rerou.xml_0" probability="0.28777645205"/>
<rerouter id="1" edges="96823244#0 175565015#1 -175565015#0" file="/home/sami/Programming/senior/Senior-Design/tollgate/output/map.rerou.xml_1" probability="0.602309689691"/>
<inductionLoop id="0" lane="175565015#1_0" pos="19.0" freq="320" file="/home/sami/Programming/senior/Senior-Design/tollgate/output/tollgate.xml"/>
<inductionLoop id="1" lane="175565015#0_0" pos="40.0" freq="320" file="/home/sami/Programming/senior/Senior-Design/tollgate/output/tollgate.xml"/>
</additional>
