<?xml version="1.0" encoding="UTF-8"?>

<!-- generated on Sun Jan 11 00:23:09 2015 by SUMO netconvert Version 0.19.0
<?xml version="1.0" encoding="UTF-8"?>

<configuration xmlns:xsi="http://www.w3.org/2001/XMLSchema-instance" xsi:noNamespaceSchemaLocation="http://sumo-sim.org/xsd/netconvertConfiguration.xsd">

    <input>
        <osm-files value="/home/sami/Programming/senior/Senior-Design/import/map.osm.xml"/>
    </input>

    <output>
        <output-file value="/home/sami/Programming/senior/Senior-Design/tollgate/data/map.net.xml"/>
    </output>

    <projection>
        <proj.utm value="true"/>
    </projection>

    <tls_building>
        <tls.discard-simple value="true"/>
        <tls.guess value="true"/>
        <tls.join value="true"/>
    </tls_building>

    <ramp_guessing>
        <ramps.guess value="true"/>
    </ramp_guessing>

    <edge_removal>
        <remove-edges.by-vclass value="hov,taxi,bus,delivery,transport,lightrail,cityrail,rail_slow,rail_fast,motorcycle,bicycle,pedestrian"/>
        <remove-edges.isolated value="true"/>
    </edge_removal>

    <processing>
        <no-turnarounds.tls value="true"/>
        <geometry.remove value="true"/>
        <roundabouts.guess value="true"/>
        <junctions.join value="true"/>
    </processing>

    <report>
        <verbose value="true"/>
    </report>

</configuration>
-->

<net version="0.13" xmlns:xsi="http://www.w3.org/2001/XMLSchema-instance" xsi:noNamespaceSchemaLocation="http://sumo-sim.org/xsd/net_file.xsd">

    <location netOffset="-326862.16,-2788222.43" convBoundary="0.00,0.00,751.24,913.81" origBoundary="55.281556,25.200242,55.288950,25.208466" projParameter="+proj=utm +zone=40 +ellps=WGS84 +datum=WGS84 +units=m +no_defs"/>

    <edge id=":1121799600_0" function="internal">
        <lane id=":1121799600_0_0" index="0" speed="18.06" length="7.78" shape="720.82,143.12 720.84,145.24 720.18,146.88 718.83,148.02 716.81,148.68"/>
    </edge>
    <edge id=":1121799600_1" function="internal">
        <lane id=":1121799600_1_0" index="0" speed="13.89" length="4.82" shape="720.82,143.12 720.19,144.46 719.43,145.00 718.56,144.71 717.56,143.61"/>
    </edge>
    <edge id=":1121799600_2" function="internal">
        <lane id=":1121799600_2_0" index="0" speed="18.06" length="2.54" shape="716.25,145.42 716.91,145.21 717.35,144.84 717.56,144.30 717.56,143.61"/>
    </edge>
    <edge id=":1121799600_3" function="internal">
        <lane id=":1121799600_3_0" index="0" speed="22.22" length="4.82" shape="716.25,145.42 717.61,146.03 718.16,146.77 717.89,147.65 716.81,148.68"/>
    </edge>
    <edge id=":1121799624_0" function="internal">
        <lane id=":1121799624_0_0" index="0" speed="18.06" length="7.92" shape="752.30,819.43 752.37,821.60 751.73,823.27 750.37,824.44 748.31,825.10"/>
    </edge>
    <edge id=":1121799624_1" function="internal">
        <lane id=":1121799624_1_0" index="0" speed="13.89" length="4.82" shape="752.30,819.43 751.70,820.79 750.96,821.34 750.07,821.08 749.05,820.00"/>
    </edge>
    <edge id=":1121799624_2" function="internal">
        <lane id=":1121799624_2_0" index="0" speed="18.06" length="2.59" shape="747.74,821.85 748.42,821.63 748.86,821.25 749.07,820.71 749.05,820.00"/>
    </edge>
    <edge id=":1121799624_3" function="internal">
        <lane id=":1121799624_3_0" index="0" speed="22.22" length="4.82" shape="747.74,821.85 749.10,822.46 749.65,823.20 749.39,824.08 748.31,825.10"/>
    </edge>
    <edge id=":1121799643_0" function="internal">
        <lane id=":1121799643_0_0" index="0" speed="13.89" length="9.24" shape="27.11,554.31 26.28,545.11"/>
    </edge>
    <edge id=":1121799643_1" function="internal">
        <lane id=":1121799643_1_0" index="0" speed="13.89" length="6.81" shape="27.11,554.31 27.35,551.67 28.42,549.63 29.90,548.52"/>
    </edge>
    <edge id=":1121799643_2" function="internal">
        <lane id=":1121799643_2_0" index="0" speed="13.89" length="2.41" shape="27.11,554.31 27.86,553.03 28.65,552.57"/>
    </edge>
    <edge id=":1121799643_9" function="internal">
        <lane id=":1121799643_9_0" index="0" speed="13.89" length="3.41" shape="29.90,548.52 30.33,548.19 33.07,547.35"/>
    </edge>
    <edge id=":1121799643_10" function="internal">
        <lane id=":1121799643_10_0" index="0" speed="13.89" length="2.41" shape="28.65,552.57 29.50,552.93 30.40,554.12"/>
    </edge>
    <edge id=":1121799643_3" function="internal">
        <lane id=":1121799643_3_0" index="0" speed="13.89" length="5.31" shape="33.62,550.60 32.15,551.04 31.12,551.77 30.53,552.80 30.40,554.12"/>
    </edge>
    <edge id=":1121799643_4" function="internal">
        <lane id=":1121799643_4_0" index="0" speed="13.89" length="3.61" shape="33.62,550.60 30.70,550.68 30.07,550.43"/>
    </edge>
    <edge id=":1121799643_5" function="internal">
        <lane id=":1121799643_5_0" index="0" speed="13.89" length="2.41" shape="33.62,550.60 32.27,550.00 31.72,549.26"/>
    </edge>
    <edge id=":1121799643_11" function="internal">
        <lane id=":1121799643_11_0" index="0" speed="13.89" length="6.99" shape="30.07,550.43 28.50,549.79 27.03,547.93 26.28,545.11"/>
    </edge>
    <edge id=":1121799643_12" function="internal">
        <lane id=":1121799643_12_0" index="0" speed="13.89" length="2.41" shape="31.72,549.26 31.99,548.37 33.07,547.35"/>
    </edge>
    <edge id=":1121799643_6" function="internal">
        <lane id=":1121799643_6_0" index="0" speed="13.89" length="5.06" shape="29.56,544.72 29.91,546.08 30.62,546.96 31.67,547.39 33.07,547.35"/>
    </edge>
    <edge id=":1121799643_7" function="internal">
        <lane id=":1121799643_7_0" index="0" speed="13.89" length="9.43" shape="29.56,544.72 30.40,554.12"/>
    </edge>
    <edge id=":1121799643_8" function="internal">
        <lane id=":1121799643_8_0" index="0" speed="13.89" length="2.41" shape="29.56,544.72 28.88,546.05 28.11,546.55"/>
    </edge>
    <edge id=":1121799643_13" function="internal">
        <lane id=":1121799643_13_0" index="0" speed="13.89" length="2.41" shape="28.11,546.55 27.24,546.24 26.28,545.11"/>
    </edge>
    <edge id=":1121799648_0" function="internal">
        <lane id=":1121799648_0_0" index="0" speed="18.06" length="5.01" shape="634.12,166.16 633.70,164.85 632.96,163.99 631.90,163.59 630.53,163.63"/>
    </edge>
    <edge id=":1121799648_1" function="internal">
        <lane id=":1121799648_1_0" index="0" speed="18.06" length="10.33" shape="634.12,166.16 634.03,163.33 634.87,161.15 636.64,159.63 639.33,158.75"/>
    </edge>
    <edge id=":1121799648_2" function="internal">
        <lane id=":1121799648_2_0" index="0" speed="13.89" length="4.82" shape="634.12,166.16 634.72,164.80 635.46,164.25 636.35,164.51 637.37,165.59"/>
    </edge>
    <edge id=":1121799648_3" function="internal">
        <lane id=":1121799648_3_0" index="0" speed="18.06" length="5.00" shape="639.89,162.00 638.59,162.43 637.73,163.16 637.33,164.22 637.37,165.59"/>
    </edge>
    <edge id=":1121799648_4" function="internal">
        <lane id=":1121799648_4_0" index="0" speed="22.22" length="9.50" shape="639.89,162.00 630.53,163.63"/>
    </edge>
    <edge id=":1121799648_5" function="internal">
        <lane id=":1121799648_5_0" index="0" speed="22.22" length="2.41" shape="639.89,162.00 638.53,161.40 637.99,160.66"/>
    </edge>
    <edge id=":1121799648_9" function="internal">
        <lane id=":1121799648_9_0" index="0" speed="22.22" length="2.41" shape="637.99,160.66 638.25,159.78 639.33,158.75"/>
    </edge>
    <edge id=":1121799648_6" function="internal">
        <lane id=":1121799648_6_0" index="0" speed="22.22" length="9.50" shape="629.97,160.37 639.33,158.75"/>
    </edge>
    <edge id=":1121799648_7" function="internal">
        <lane id=":1121799648_7_0" index="0" speed="18.06" length="7.14" shape="629.97,160.37 632.79,160.29 634.97,161.13 636.26,162.63"/>
    </edge>
    <edge id=":1121799648_8" function="internal">
        <lane id=":1121799648_8_0" index="0" speed="22.22" length="2.41" shape="629.97,160.37 631.33,160.98 631.88,161.72"/>
    </edge>
    <edge id=":1121799648_10" function="internal">
        <lane id=":1121799648_10_0" index="0" speed="18.06" length="3.18" shape="636.26,162.63 636.49,162.90 637.37,165.59"/>
    </edge>
    <edge id=":1121799648_11" function="internal">
        <lane id=":1121799648_11_0" index="0" speed="22.22" length="2.41" shape="631.88,161.72 631.61,162.60 630.53,163.63"/>
    </edge>
    <edge id=":1121799651_0" function="internal">
        <lane id=":1121799651_0_0" index="0" speed="13.89" length="5.04" shape="647.93,244.72 647.50,243.43 646.75,242.57 645.68,242.16 644.29,242.20"/>
    </edge>
    <edge id=":1121799651_1" function="internal">
        <lane id=":1121799651_1_0" index="0" speed="13.89" length="9.50" shape="647.93,244.72 646.28,235.37"/>
    </edge>
    <edge id=":1121799651_2" function="internal">
        <lane id=":1121799651_2_0" index="0" speed="13.89" length="2.41" shape="647.93,244.72 648.52,243.36 649.27,242.81"/>
    </edge>
    <edge id=":1121799651_9" function="internal">
        <lane id=":1121799651_9_0" index="0" speed="13.89" length="2.41" shape="649.27,242.81 650.15,243.07 651.18,244.15"/>
    </edge>
    <edge id=":1121799651_3" function="internal">
        <lane id=":1121799651_3_0" index="0" speed="13.89" length="9.50" shape="649.53,234.79 651.18,244.15"/>
    </edge>
    <edge id=":1121799651_4" function="internal">
        <lane id=":1121799651_4_0" index="0" speed="13.89" length="7.15" shape="649.53,234.79 649.62,237.64 648.78,239.82 647.29,241.09"/>
    </edge>
    <edge id=":1121799651_5" function="internal">
        <lane id=":1121799651_5_0" index="0" speed="13.89" length="2.41" shape="649.53,234.79 648.93,236.16 648.19,236.71"/>
    </edge>
    <edge id=":1121799651_10" function="internal">
        <lane id=":1121799651_10_0" index="0" speed="13.89" length="3.23" shape="647.29,241.09 647.00,241.34 644.29,242.20"/>
    </edge>
    <edge id=":1121799651_11" function="internal">
        <lane id=":1121799651_11_0" index="0" speed="13.89" length="2.41" shape="648.19,236.71 647.31,236.44 646.28,235.37"/>
    </edge>
    <edge id=":1121799651_6" function="internal">
        <lane id=":1121799651_6_0" index="0" speed="13.89" length="5.01" shape="643.75,238.94 645.06,238.53 645.92,237.79 646.33,236.74 646.28,235.37"/>
    </edge>
    <edge id=":1121799651_7" function="internal">
        <lane id=":1121799651_7_0" index="0" speed="13.89" length="3.20" shape="643.75,238.94 646.59,238.88 646.92,239.01"/>
    </edge>
    <edge id=":1121799651_8" function="internal">
        <lane id=":1121799651_8_0" index="0" speed="13.89" length="2.41" shape="643.75,238.94 645.10,239.55 645.64,240.30"/>
    </edge>
    <edge id=":1121799651_12" function="internal">
        <lane id=":1121799651_12_0" index="0" speed="13.89" length="7.12" shape="646.92,239.01 648.77,239.72 650.30,241.48 651.18,244.15"/>
    </edge>
    <edge id=":1121799651_13" function="internal">
        <lane id=":1121799651_13_0" index="0" speed="13.89" length="2.41" shape="645.64,240.30 645.37,241.18 644.29,242.20"/>
    </edge>
    <edge id=":1121799653_0" function="internal">
        <lane id=":1121799653_0_0" index="0" speed="13.89" length="5.02" shape="656.13,291.37 655.70,290.07 654.96,289.22 653.89,288.81 652.51,288.85"/>
    </edge>
    <edge id=":1121799653_1" function="internal">
        <lane id=":1121799653_1_0" index="0" speed="13.89" length="9.50" shape="656.13,291.37 654.49,282.01"/>
    </edge>
    <edge id=":1121799653_2" function="internal">
        <lane id=":1121799653_2_0" index="0" speed="13.89" length="2.41" shape="656.13,291.37 656.73,290.01 657.47,289.46"/>
    </edge>
    <edge id=":1121799653_9" function="internal">
        <lane id=":1121799653_9_0" index="0" speed="13.89" length="2.41" shape="657.47,289.46 658.35,289.72 659.38,290.80"/>
    </edge>
    <edge id=":1121799653_3" function="internal">
        <lane id=":1121799653_3_0" index="0" speed="13.89" length="9.50" shape="657.74,281.44 659.38,290.80"/>
    </edge>
    <edge id=":1121799653_4" function="internal">
        <lane id=":1121799653_4_0" index="0" speed="13.89" length="7.15" shape="657.74,281.44 657.83,284.28 656.99,286.46 655.49,287.74"/>
    </edge>
    <edge id=":1121799653_5" function="internal">
        <lane id=":1121799653_5_0" index="0" speed="13.89" length="2.41" shape="657.74,281.44 657.14,282.80 656.40,283.35"/>
    </edge>
    <edge id=":1121799653_10" function="internal">
        <lane id=":1121799653_10_0" index="0" speed="13.89" length="3.21" shape="655.49,287.74 655.21,287.98 652.51,288.85"/>
    </edge>
    <edge id=":1121799653_11" function="internal">
        <lane id=":1121799653_11_0" index="0" speed="13.89" length="2.41" shape="656.40,283.35 655.51,283.09 654.49,282.01"/>
    </edge>
    <edge id=":1121799653_6" function="internal">
        <lane id=":1121799653_6_0" index="0" speed="13.89" length="5.01" shape="651.96,285.60 653.27,285.18 654.12,284.44 654.53,283.39 654.49,282.01"/>
    </edge>
    <edge id=":1121799653_7" function="internal">
        <lane id=":1121799653_7_0" index="0" speed="13.89" length="3.19" shape="651.96,285.60 654.79,285.52 655.13,285.65"/>
    </edge>
    <edge id=":1121799653_8" function="internal">
        <lane id=":1121799653_8_0" index="0" speed="13.89" length="2.41" shape="651.96,285.60 653.32,286.20 653.86,286.95"/>
    </edge>
    <edge id=":1121799653_12" function="internal">
        <lane id=":1121799653_12_0" index="0" speed="13.89" length="7.13" shape="655.13,285.65 656.97,286.36 658.50,288.12 659.38,290.80"/>
    </edge>
    <edge id=":1121799653_13" function="internal">
        <lane id=":1121799653_13_0" index="0" speed="13.89" length="2.41" shape="653.86,286.95 653.59,287.83 652.51,288.85"/>
    </edge>
    <edge id=":1121799655_0" function="internal">
        <lane id=":1121799655_0_0" index="0" speed="13.89" length="5.00" shape="664.19,337.24 663.76,335.93 663.02,335.08 661.97,334.68 660.60,334.73"/>
    </edge>
    <edge id=":1121799655_1" function="internal">
        <lane id=":1121799655_1_0" index="0" speed="13.89" length="9.50" shape="664.19,337.24 662.54,327.88"/>
    </edge>
    <edge id=":1121799655_2" function="internal">
        <lane id=":1121799655_2_0" index="0" speed="13.89" length="2.41" shape="664.19,337.24 664.79,335.87 665.53,335.33"/>
    </edge>
    <edge id=":1121799655_9" function="internal">
        <lane id=":1121799655_9_0" index="0" speed="13.89" length="2.41" shape="665.53,335.33 666.41,335.59 667.44,336.66"/>
    </edge>
    <edge id=":1121799655_3" function="internal">
        <lane id=":1121799655_3_0" index="0" speed="13.89" length="9.50" shape="665.79,327.31 667.44,336.66"/>
    </edge>
    <edge id=":1121799655_4" function="internal">
        <lane id=":1121799655_4_0" index="0" speed="13.89" length="7.14" shape="665.79,327.31 665.88,330.13 665.05,332.31 663.55,333.61"/>
    </edge>
    <edge id=":1121799655_5" function="internal">
        <lane id=":1121799655_5_0" index="0" speed="13.89" length="2.41" shape="665.79,327.31 665.20,328.67 664.46,329.22"/>
    </edge>
    <edge id=":1121799655_10" function="internal">
        <lane id=":1121799655_10_0" index="0" speed="13.89" length="3.19" shape="663.55,333.61 663.28,333.84 660.60,334.73"/>
    </edge>
    <edge id=":1121799655_11" function="internal">
        <lane id=":1121799655_11_0" index="0" speed="13.89" length="2.41" shape="664.46,329.22 663.57,328.96 662.54,327.88"/>
    </edge>
    <edge id=":1121799655_6" function="internal">
        <lane id=":1121799655_6_0" index="0" speed="13.89" length="5.01" shape="660.01,331.48 661.32,331.05 662.18,330.30 662.59,329.25 662.54,327.88"/>
    </edge>
    <edge id=":1121799655_7" function="internal">
        <lane id=":1121799655_7_0" index="0" speed="13.89" length="3.19" shape="660.01,331.48 662.85,331.38 663.18,331.51"/>
    </edge>
    <edge id=":1121799655_8" function="internal">
        <lane id=":1121799655_8_0" index="0" speed="13.89" length="2.41" shape="660.01,331.48 661.38,332.07 661.93,332.81"/>
    </edge>
    <edge id=":1121799655_12" function="internal">
        <lane id=":1121799655_12_0" index="0" speed="13.89" length="7.14" shape="663.18,331.51 665.03,332.21 666.56,333.97 667.44,336.66"/>
    </edge>
    <edge id=":1121799655_13" function="internal">
        <lane id=":1121799655_13_0" index="0" speed="13.89" length="2.41" shape="661.93,332.81 661.67,333.70 660.60,334.73"/>
    </edge>
    <edge id=":1121799656_0" function="internal">
        <lane id=":1121799656_0_0" index="0" speed="13.89" length="5.00" shape="673.49,390.10 673.06,388.80 672.32,387.95 671.27,387.54 669.90,387.59"/>
    </edge>
    <edge id=":1121799656_1" function="internal">
        <lane id=":1121799656_1_0" index="0" speed="13.89" length="9.50" shape="673.49,390.10 671.84,380.75"/>
    </edge>
    <edge id=":1121799656_2" function="internal">
        <lane id=":1121799656_2_0" index="0" speed="13.89" length="2.41" shape="673.49,390.10 674.09,388.74 674.83,388.19"/>
    </edge>
    <edge id=":1121799656_9" function="internal">
        <lane id=":1121799656_9_0" index="0" speed="13.89" length="2.41" shape="674.83,388.19 675.71,388.45 676.74,389.53"/>
    </edge>
    <edge id=":1121799656_3" function="internal">
        <lane id=":1121799656_3_0" index="0" speed="13.89" length="9.50" shape="675.09,380.17 676.74,389.53"/>
    </edge>
    <edge id=":1121799656_4" function="internal">
        <lane id=":1121799656_4_0" index="0" speed="13.89" length="7.14" shape="675.09,380.17 675.18,383.00 674.35,385.17 672.85,386.47"/>
    </edge>
    <edge id=":1121799656_5" function="internal">
        <lane id=":1121799656_5_0" index="0" speed="13.89" length="2.41" shape="675.09,380.17 674.49,381.53 673.75,382.08"/>
    </edge>
    <edge id=":1121799656_10" function="internal">
        <lane id=":1121799656_10_0" index="0" speed="13.89" length="3.18" shape="672.85,386.47 672.58,386.70 669.90,387.59"/>
    </edge>
    <edge id=":1121799656_11" function="internal">
        <lane id=":1121799656_11_0" index="0" speed="13.89" length="2.41" shape="673.75,382.08 672.87,381.82 671.84,380.75"/>
    </edge>
    <edge id=":1121799656_6" function="internal">
        <lane id=":1121799656_6_0" index="0" speed="13.89" length="5.01" shape="669.32,384.34 670.62,383.91 671.48,383.17 671.89,382.11 671.84,380.75"/>
    </edge>
    <edge id=":1121799656_7" function="internal">
        <lane id=":1121799656_7_0" index="0" speed="13.89" length="3.19" shape="669.32,384.34 672.15,384.24 672.48,384.37"/>
    </edge>
    <edge id=":1121799656_8" function="internal">
        <lane id=":1121799656_8_0" index="0" speed="13.89" length="2.41" shape="669.32,384.34 670.68,384.94 671.23,385.68"/>
    </edge>
    <edge id=":1121799656_12" function="internal">
        <lane id=":1121799656_12_0" index="0" speed="13.89" length="7.14" shape="672.48,384.37 674.33,385.08 675.86,386.84 676.74,389.53"/>
    </edge>
    <edge id=":1121799656_13" function="internal">
        <lane id=":1121799656_13_0" index="0" speed="13.89" length="2.41" shape="671.23,385.68 670.97,386.56 669.90,387.59"/>
    </edge>
    <edge id=":1121799675_0" function="internal">
        <lane id=":1121799675_0_0" index="0" speed="13.89" length="9.50" shape="316.91,101.47 315.39,92.09"/>
    </edge>
    <edge id=":1121799675_1" function="internal">
        <lane id=":1121799675_1_0" index="0" speed="13.89" length="7.13" shape="316.91,101.47 316.86,98.65 317.73,96.49 319.24,95.20"/>
    </edge>
    <edge id=":1121799675_2" function="internal">
        <lane id=":1121799675_2_0" index="0" speed="13.89" length="2.41" shape="316.91,101.47 317.53,100.12 318.28,99.58"/>
    </edge>
    <edge id=":1121799675_9" function="internal">
        <lane id=":1121799675_9_0" index="0" speed="13.89" length="3.19" shape="319.24,95.20 319.51,94.97 322.21,94.12"/>
    </edge>
    <edge id=":1121799675_10" function="internal">
        <lane id=":1121799675_10_0" index="0" speed="13.89" length="2.41" shape="318.28,99.58 319.16,99.85 320.17,100.94"/>
    </edge>
    <edge id=":1121799675_3" function="internal">
        <lane id=":1121799675_3_0" index="0" speed="13.89" length="3.21" shape="322.76,97.37 319.92,97.44 319.58,97.31"/>
    </edge>
    <edge id=":1121799675_4" function="internal">
        <lane id=":1121799675_4_0" index="0" speed="13.89" length="5.02" shape="322.76,97.37 321.44,97.79 320.57,98.52 320.14,99.57 320.17,100.94"/>
    </edge>
    <edge id=":1121799675_5" function="internal">
        <lane id=":1121799675_5_0" index="0" speed="13.89" length="2.41" shape="322.76,97.37 321.40,96.76 320.86,96.02"/>
    </edge>
    <edge id=":1121799675_11" function="internal">
        <lane id=":1121799675_11_0" index="0" speed="13.89" length="7.14" shape="319.58,97.31 317.75,96.58 316.24,94.80 315.39,92.09"/>
    </edge>
    <edge id=":1121799675_12" function="internal">
        <lane id=":1121799675_12_0" index="0" speed="13.89" length="2.41" shape="320.86,96.02 321.13,95.13 322.21,94.12"/>
    </edge>
    <edge id=":1121799675_6" function="internal">
        <lane id=":1121799675_6_0" index="0" speed="13.89" length="5.01" shape="318.65,91.56 319.06,92.87 319.79,93.74 320.84,94.15 322.21,94.12"/>
    </edge>
    <edge id=":1121799675_7" function="internal">
        <lane id=":1121799675_7_0" index="0" speed="13.89" length="9.50" shape="318.65,91.56 320.17,100.94"/>
    </edge>
    <edge id=":1121799675_8" function="internal">
        <lane id=":1121799675_8_0" index="0" speed="13.89" length="2.41" shape="318.65,91.56 318.03,92.92 317.28,93.46"/>
    </edge>
    <edge id=":1121799675_13" function="internal">
        <lane id=":1121799675_13_0" index="0" speed="13.89" length="2.41" shape="317.28,93.46 316.40,93.18 315.39,92.09"/>
    </edge>
    <edge id=":1121799684_0" function="internal">
        <lane id=":1121799684_0_0" index="0" speed="13.89" length="5.00" shape="323.74,143.49 323.33,142.18 322.60,141.32 321.55,140.90 320.18,140.92"/>
    </edge>
    <edge id=":1121799684_1" function="internal">
        <lane id=":1121799684_1_0" index="0" speed="13.89" length="9.50" shape="323.74,143.49 322.22,134.11"/>
    </edge>
    <edge id=":1121799684_2" function="internal">
        <lane id=":1121799684_2_0" index="0" speed="13.89" length="2.41" shape="323.74,143.49 324.36,142.13 325.10,141.59"/>
    </edge>
    <edge id=":1121799684_9" function="internal">
        <lane id=":1121799684_9_0" index="0" speed="13.89" length="2.41" shape="325.10,141.59 325.98,141.87 327.00,142.96"/>
    </edge>
    <edge id=":1121799684_3" function="internal">
        <lane id=":1121799684_3_0" index="0" speed="13.89" length="9.50" shape="325.47,133.58 327.00,142.96"/>
    </edge>
    <edge id=":1121799684_4" function="internal">
        <lane id=":1121799684_4_0" index="0" speed="13.89" length="7.14" shape="325.47,133.58 325.53,136.41 324.66,138.57 323.15,139.85"/>
    </edge>
    <edge id=":1121799684_5" function="internal">
        <lane id=":1121799684_5_0" index="0" speed="13.89" length="2.41" shape="325.47,133.58 324.86,134.93 324.11,135.47"/>
    </edge>
    <edge id=":1121799684_10" function="internal">
        <lane id=":1121799684_10_0" index="0" speed="13.89" length="3.18" shape="323.15,139.85 322.88,140.08 320.18,140.92"/>
    </edge>
    <edge id=":1121799684_11" function="internal">
        <lane id=":1121799684_11_0" index="0" speed="13.89" length="2.41" shape="324.11,135.47 323.23,135.20 322.22,134.11"/>
    </edge>
    <edge id=":1121799684_6" function="internal">
        <lane id=":1121799684_6_0" index="0" speed="13.89" length="5.00" shape="319.65,137.67 320.96,137.26 321.82,136.53 322.24,135.48 322.22,134.11"/>
    </edge>
    <edge id=":1121799684_7" function="internal">
        <lane id=":1121799684_7_0" index="0" speed="13.89" length="3.18" shape="319.65,137.67 322.48,137.61 322.81,137.74"/>
    </edge>
    <edge id=":1121799684_8" function="internal">
        <lane id=":1121799684_8_0" index="0" speed="13.89" length="2.41" shape="319.65,137.67 321.01,138.28 321.55,139.03"/>
    </edge>
    <edge id=":1121799684_12" function="internal">
        <lane id=":1121799684_12_0" index="0" speed="13.89" length="7.14" shape="322.81,137.74 324.65,138.48 326.15,140.26 327.00,142.96"/>
    </edge>
    <edge id=":1121799684_13" function="internal">
        <lane id=":1121799684_13_0" index="0" speed="13.89" length="2.41" shape="321.55,139.03 321.27,139.91 320.18,140.92"/>
    </edge>
    <edge id=":1121799686_0" function="internal">
        <lane id=":1121799686_0_0" index="0" speed="13.89" length="9.50" shape="235.68,154.67 226.30,156.19"/>
    </edge>
    <edge id=":1121799686_1" function="internal">
        <lane id=":1121799686_1_0" index="0" speed="13.89" length="5.12" shape="235.68,154.67 232.89,154.71 230.73,153.84"/>
    </edge>
    <edge id=":1121799686_2" function="internal">
        <lane id=":1121799686_2_0" index="0" speed="13.89" length="2.41" shape="235.68,154.67 234.32,154.05 233.78,153.30"/>
    </edge>
    <edge id=":1121799686_9" function="internal">
        <lane id=":1121799686_9_0" index="0" speed="13.89" length="5.21" shape="230.73,153.84 229.19,152.05 228.29,149.35"/>
    </edge>
    <edge id=":1121799686_10" function="internal">
        <lane id=":1121799686_10_0" index="0" speed="13.89" length="2.41" shape="233.78,153.30 234.06,152.42 235.15,151.41"/>
    </edge>
    <edge id=":1121799686_3" function="internal">
        <lane id=":1121799686_3_0" index="0" speed="13.89" length="5.09" shape="231.54,148.75 231.98,150.09 232.73,150.99 233.79,151.43 235.15,151.41"/>
    </edge>
    <edge id=":1121799686_4" function="internal">
        <lane id=":1121799686_4_0" index="0" speed="13.89" length="3.28" shape="231.54,148.75 231.65,151.61 231.51,152.00"/>
    </edge>
    <edge id=":1121799686_5" function="internal">
        <lane id=":1121799686_5_0" index="0" speed="13.89" length="2.41" shape="231.54,148.75 230.95,150.11 230.22,150.67"/>
    </edge>
    <edge id=":1121799686_11" function="internal">
        <lane id=":1121799686_11_0" index="0" speed="13.89" length="7.15" shape="231.51,152.00 230.82,153.81 229.04,155.33 226.30,156.19"/>
    </edge>
    <edge id=":1121799686_12" function="internal">
        <lane id=":1121799686_12_0" index="0" speed="13.89" length="2.41" shape="230.22,150.67 229.33,150.41 228.29,149.35"/>
    </edge>
    <edge id=":1121799686_6" function="internal">
        <lane id=":1121799686_6_0" index="0" speed="13.89" length="5.03" shape="225.77,152.93 227.09,152.52 227.95,151.78 228.35,150.73 228.29,149.35"/>
    </edge>
    <edge id=":1121799686_7" function="internal">
        <lane id=":1121799686_7_0" index="0" speed="13.89" length="9.50" shape="225.77,152.93 235.15,151.41"/>
    </edge>
    <edge id=":1121799686_8" function="internal">
        <lane id=":1121799686_8_0" index="0" speed="13.89" length="2.41" shape="225.77,152.93 227.12,153.55 227.66,154.30"/>
    </edge>
    <edge id=":1121799686_13" function="internal">
        <lane id=":1121799686_13_0" index="0" speed="13.89" length="2.41" shape="227.66,154.30 227.39,155.18 226.30,156.19"/>
    </edge>
    <edge id=":1121799693_0" function="internal">
        <lane id=":1121799693_0_0" index="0" speed="13.89" length="5.48" shape="206.74,33.12 206.24,31.62 205.41,30.82 204.27,30.71 202.80,31.31"/>
    </edge>
    <edge id=":1121799693_1" function="internal">
        <lane id=":1121799693_1_0" index="0" speed="13.89" length="4.01" shape="206.74,33.12 206.43,29.84 206.53,29.14"/>
    </edge>
    <edge id=":1121799693_2" function="internal">
        <lane id=":1121799693_2_0" index="0" speed="13.89" length="2.41" shape="206.74,33.12 207.33,31.76 208.07,31.20"/>
    </edge>
    <edge id=":1121799693_9" function="internal">
        <lane id=":1121799693_9_0" index="0" speed="13.89" length="6.77" shape="206.53,29.14 206.82,27.14 207.91,25.02 209.70,23.48"/>
    </edge>
    <edge id=":1121799693_10" function="internal">
        <lane id=":1121799693_10_0" index="0" speed="13.89" length="2.41" shape="208.07,31.20 208.95,31.46 209.99,32.52"/>
    </edge>
    <edge id=":1121799693_3" function="internal">
        <lane id=":1121799693_3_0" index="0" speed="13.89" length="9.90" shape="211.36,26.33 202.80,31.31"/>
    </edge>
    <edge id=":1121799693_4" function="internal">
        <lane id=":1121799693_4_0" index="0" speed="13.89" length="6.72" shape="211.36,26.33 210.42,27.21 209.88,28.54 209.74,30.31 209.99,32.52"/>
    </edge>
    <edge id=":1121799693_5" function="internal">
        <lane id=":1121799693_5_0" index="0" speed="13.89" length="2.41" shape="211.36,26.33 209.87,26.24 209.10,25.74"/>
    </edge>
    <edge id=":1121799693_11" function="internal">
        <lane id=":1121799693_11_0" index="0" speed="13.89" length="2.41" shape="209.10,25.74 209.04,24.82 209.70,23.48"/>
    </edge>
    <edge id=":1121799693_6" function="internal">
        <lane id=":1121799693_6_0" index="0" speed="13.89" length="9.90" shape="201.14,28.46 209.70,23.48"/>
    </edge>
    <edge id=":1121799693_7" function="internal">
        <lane id=":1121799693_7_0" index="0" speed="13.89" length="7.50" shape="201.14,28.46 204.43,27.12 207.01,27.35 207.98,28.30"/>
    </edge>
    <edge id=":1121799693_8" function="internal">
        <lane id=":1121799693_8_0" index="0" speed="13.89" length="2.41" shape="201.14,28.46 202.62,28.55 203.39,29.06"/>
    </edge>
    <edge id=":1121799693_12" function="internal">
        <lane id=":1121799693_12_0" index="0" speed="13.89" length="4.78" shape="207.98,28.30 208.86,29.15 209.99,32.52"/>
    </edge>
    <edge id=":1121799693_13" function="internal">
        <lane id=":1121799693_13_0" index="0" speed="13.89" length="2.41" shape="203.39,29.06 203.45,29.98 202.80,31.31"/>
    </edge>
    <edge id=":1121799703_0" function="internal">