<additional>
<inductionLoop id="0" lane="96823257_0" pos="92" freq="120" file="map.out"/>
<inductionLoop id="20" lane="-96823257_0" pos="119" freq="120" file="map.out"/>
</additional>
