<?xml version="1.0" encoding="UTF-8"?>

<!-- generated on Mon Jan  5 03:25:22 2015 by SUMO netconvert Version 0.19.0
<?xml version="1.0" encoding="UTF-8"?>

<configuration xmlns:xsi="http://www.w3.org/2001/XMLSchema-instance" xsi:noNamespaceSchemaLocation="http://sumo-sim.org/xsd/netconvertConfiguration.xsd">

    <input>
        <osm-files value="/home/sami/Programming/senior/Senior-Design/import/map.osm.xml"/>
    </input>

    <output>
        <output-file value="/home/sami/Programming/senior/Senior-Design/tollgate/data/map.net.xml"/>
    </output>

    <projection>
        <proj.utm value="true"/>
    </projection>

    <tls_building>
        <tls.discard-simple value="true"/>
        <tls.guess value="true"/>
        <tls.join value="true"/>
    </tls_building>

    <ramp_guessing>
        <ramps.guess value="true"/>
    </ramp_guessing>

    <edge_removal>
        <remove-edges.by-vclass value="hov,taxi,bus,delivery,transport,lightrail,cityrail,rail_slow,rail_fast,motorcycle,bicycle,pedestrian"/>
        <remove-edges.isolated value="true"/>
    </edge_removal>

    <processing>
        <no-turnarounds.tls value="true"/>
        <geometry.remove value="true"/>
        <roundabouts.guess value="true"/>
        <junctions.join value="true"/>
    </processing>

    <report>
        <verbose value="true"/>
    </report>

</configuration>
-->

<net version="0.13" xmlns:xsi="http://www.w3.org/2001/XMLSchema-instance" xsi:noNamespaceSchemaLocation="http://sumo-sim.org/xsd/net_file.xsd">

    <location netOffset="-326840.66,-2788175.00" convBoundary="0.00,0.00,927.92,977.81" origBoundary="55.281269,25.199813,55.290492,25.208603" projParameter="+proj=utm +zone=40 +ellps=WGS84 +datum=WGS84 +units=m +no_defs"/>

    <edge id=":1121799600_0" function="internal">
        <lane id=":1121799600_0_0" index="0" speed="22.22" length="9.49" shape="746.18,194.76 736.83,196.36"/>
    </edge>
    <edge id=":1121799600_1" function="internal">
        <lane id=":1121799600_1_0" index="0" speed="18.06" length="7.14" shape="746.18,194.76 743.32,194.83 741.14,193.97 739.90,192.48"/>
    </edge>
    <edge id=":1121799600_2" function="internal">
        <lane id=":1121799600_2_0" index="0" speed="22.22" length="2.41" shape="746.18,194.76 744.82,194.15 744.28,193.40"/>
    </edge>
    <edge id=":1121799600_9" function="internal">
        <lane id=":1121799600_9_0" index="0" speed="18.06" length="3.28" shape="739.90,192.48 739.63,192.16 738.81,189.42"/>
    </edge>
    <edge id=":1121799600_10" function="internal">
        <lane id=":1121799600_10_0" index="0" speed="22.22" length="2.41" shape="744.28,193.40 744.54,192.52 745.63,191.50"/>
    </edge>
    <edge id=":1121799600_3" function="internal">
        <lane id=":1121799600_3_0" index="0" speed="18.06" length="5.02" shape="742.07,188.93 742.47,190.25 743.20,191.12 744.25,191.54 745.63,191.50"/>
    </edge>
    <edge id=":1121799600_4" function="internal">
        <lane id=":1121799600_4_0" index="0" speed="18.06" length="10.32" shape="742.07,188.93 742.11,191.78 741.24,193.96 739.48,195.49 736.83,196.36"/>
    </edge>
    <edge id=":1121799600_5" function="internal">
        <lane id=":1121799600_5_0" index="0" speed="13.89" length="4.82" shape="742.07,188.93 741.44,190.28 740.69,190.81 739.81,190.52 738.81,189.42"/>
    </edge>
    <edge id=":1121799600_6" function="internal">
        <lane id=":1121799600_6_0" index="0" speed="18.06" length="5.08" shape="736.27,193.11 737.56,192.68 738.41,191.92 738.83,190.84 738.81,189.42"/>
    </edge>
    <edge id=":1121799600_7" function="internal">
        <lane id=":1121799600_7_0" index="0" speed="22.22" length="9.50" shape="736.27,193.11 745.63,191.50"/>
    </edge>
    <edge id=":1121799600_8" function="internal">
        <lane id=":1121799600_8_0" index="0" speed="22.22" length="2.41" shape="736.27,193.11 737.63,193.71 738.17,194.45"/>
    </edge>
    <edge id=":1121799600_11" function="internal">
        <lane id=":1121799600_11_0" index="0" speed="22.22" length="2.41" shape="738.17,194.45 737.91,195.33 736.83,196.36"/>
    </edge>
    <edge id=":1121799607_0" function="internal">
        <lane id=":1121799607_0_0" index="0" speed="22.22" length="4.82" shape="844.10,174.78 845.46,175.38 846.00,176.13 845.74,177.01 844.65,178.03"/>
    </edge>
    <edge id=":1121799624_0" function="internal">
        <lane id=":1121799624_0_0" index="0" speed="22.22" length="9.35" shape="777.56,871.34 768.33,872.79"/>
    </edge>
    <edge id=":1121799624_1" function="internal">
        <lane id=":1121799624_1_0" index="0" speed="18.06" length="7.00" shape="777.56,871.34 774.79,871.33 772.65,870.43 771.43,868.96"/>
    </edge>
    <edge id=":1121799624_2" function="internal">
        <lane id=":1121799624_2_0" index="0" speed="22.22" length="2.41" shape="777.56,871.34 776.22,870.69 775.70,869.93"/>
    </edge>
    <edge id=":1121799624_9" function="internal">
        <lane id=":1121799624_9_0" index="0" speed="18.06" length="3.25" shape="771.43,868.96 771.15,868.63 770.29,865.95"/>
    </edge>
    <edge id=":1121799624_10" function="internal">
        <lane id=":1121799624_10_0" index="0" speed="22.22" length="2.41" shape="775.70,869.93 775.99,869.06 777.10,868.07"/>
    </edge>
    <edge id=":1121799624_3" function="internal">
        <lane id=":1121799624_3_0" index="0" speed="18.06" length="5.06" shape="773.54,865.38 773.96,866.71 774.70,867.61 775.75,868.06 777.10,868.07"/>
    </edge>
    <edge id=":1121799624_4" function="internal">
        <lane id=":1121799624_4_0" index="0" speed="18.06" length="10.34" shape="773.54,865.38 773.63,868.21 772.79,870.39 771.02,871.91 768.33,872.79"/>
    </edge>
    <edge id=":1121799624_5" function="internal">
        <lane id=":1121799624_5_0" index="0" speed="13.89" length="4.82" shape="773.54,865.38 772.94,866.74 772.20,867.29 771.31,867.03 770.29,865.95"/>
    </edge>
    <edge id=":1121799624_6" function="internal">
        <lane id=":1121799624_6_0" index="0" speed="18.06" length="5.00" shape="767.76,869.54 769.07,869.11 769.92,868.37 770.33,867.32 770.29,865.95"/>
    </edge>
    <edge id=":1121799624_7" function="internal">
        <lane id=":1121799624_7_0" index="0" speed="22.22" length="9.45" shape="767.76,869.54 777.10,868.07"/>
    </edge>
    <edge id=":1121799624_8" function="internal">
        <lane id=":1121799624_8_0" index="0" speed="22.22" length="2.41" shape="767.76,869.54 769.12,870.14 769.67,870.88"/>
    </edge>
    <edge id=":1121799624_11" function="internal">
        <lane id=":1121799624_11_0" index="0" speed="22.22" length="2.41" shape="769.67,870.88 769.40,871.76 768.33,872.79"/>
    </edge>
    <edge id=":1121799643_0" function="internal">
        <lane id=":1121799643_0_0" index="0" speed="13.89" length="9.24" shape="48.60,601.74 47.77,592.53"/>
    </edge>
    <edge id=":1121799643_1" function="internal">
        <lane id=":1121799643_1_0" index="0" speed="13.89" length="6.81" shape="48.60,601.74 48.84,599.10 49.92,597.06 51.39,595.95"/>
    </edge>
    <edge id=":1121799643_2" function="internal">
        <lane id=":1121799643_2_0" index="0" speed="13.89" length="2.41" shape="48.60,601.74 49.35,600.46 50.15,600.00"/>
    </edge>
    <edge id=":1121799643_9" function="internal">
        <lane id=":1121799643_9_0" index="0" speed="13.89" length="3.41" shape="51.39,595.95 51.82,595.62 54.56,594.78"/>
    </edge>
    <edge id=":1121799643_10" function="internal">
        <lane id=":1121799643_10_0" index="0" speed="13.89" length="2.41" shape="50.15,600.00 51.00,600.36 51.90,601.54"/>
    </edge>
    <edge id=":1121799643_3" function="internal">
        <lane id=":1121799643_3_0" index="0" speed="13.89" length="5.31" shape="55.12,598.03 53.64,598.47 52.61,599.20 52.03,600.23 51.90,601.54"/>
    </edge>
    <edge id=":1121799643_4" function="internal">
        <lane id=":1121799643_4_0" index="0" speed="13.89" length="3.61" shape="55.12,598.03 52.20,598.11 51.56,597.85"/>
    </edge>
    <edge id=":1121799643_5" function="internal">
        <lane id=":1121799643_5_0" index="0" speed="13.89" length="2.41" shape="55.12,598.03 53.76,597.43 53.22,596.68"/>
    </edge>
    <edge id=":1121799643_11" function="internal">
        <lane id=":1121799643_11_0" index="0" speed="13.89" length="6.99" shape="51.56,597.85 50.00,597.22 48.52,595.36 47.77,592.53"/>
    </edge>
    <edge id=":1121799643_12" function="internal">
        <lane id=":1121799643_12_0" index="0" speed="13.89" length="2.41" shape="53.22,596.68 53.48,595.80 54.56,594.78"/>
    </edge>
    <edge id=":1121799643_6" function="internal">
        <lane id=":1121799643_6_0" index="0" speed="13.89" length="5.06" shape="51.05,592.15 51.41,593.50 52.11,594.39 53.17,594.82 54.56,594.78"/>
    </edge>
    <edge id=":1121799643_7" function="internal">
        <lane id=":1121799643_7_0" index="0" speed="13.89" length="9.43" shape="51.05,592.15 51.90,601.54"/>
    </edge>
    <edge id=":1121799643_8" function="internal">
        <lane id=":1121799643_8_0" index="0" speed="13.89" length="2.41" shape="51.05,592.15 50.38,593.48 49.60,593.98"/>
    </edge>
    <edge id=":1121799643_13" function="internal">
        <lane id=":1121799643_13_0" index="0" speed="13.89" length="2.41" shape="49.60,593.98 48.74,593.67 47.77,592.53"/>
    </edge>
    <edge id=":1121799648_0" function="internal">
        <lane id=":1121799648_0_0" index="0" speed="18.06" length="5.01" shape="655.62,213.59 655.19,212.28 654.45,211.42 653.40,211.01 652.03,211.05"/>
    </edge>
    <edge id=":1121799648_1" function="internal">
        <lane id=":1121799648_1_0" index="0" speed="18.06" length="10.33" shape="655.62,213.59 655.53,210.76 656.37,208.58 658.13,207.05 660.83,206.18"/>
    </edge>
    <edge id=":1121799648_2" function="internal">
        <lane id=":1121799648_2_0" index="0" speed="13.89" length="4.82" shape="655.62,213.59 656.22,212.23 656.96,211.68 657.84,211.94 658.87,213.02"/>
    </edge>
    <edge id=":1121799648_3" function="internal">
        <lane id=":1121799648_3_0" index="0" speed="18.06" length="5.00" shape="661.39,209.43 660.09,209.85 659.23,210.59 658.83,211.65 658.87,213.02"/>
    </edge>
    <edge id=":1121799648_4" function="internal">
        <lane id=":1121799648_4_0" index="0" speed="22.22" length="9.50" shape="661.39,209.43 652.03,211.05"/>
    </edge>
    <edge id=":1121799648_5" function="internal">
        <lane id=":1121799648_5_0" index="0" speed="22.22" length="2.41" shape="661.39,209.43 660.03,208.83 659.48,208.09"/>
    </edge>
    <edge id=":1121799648_9" function="internal">
        <lane id=":1121799648_9_0" index="0" speed="22.22" length="2.41" shape="659.48,208.09 659.75,207.20 660.83,206.18"/>
    </edge>
    <edge id=":1121799648_6" function="internal">
        <lane id=":1121799648_6_0" index="0" speed="22.22" length="9.50" shape="651.47,207.80 660.83,206.18"/>
    </edge>
    <edge id=":1121799648_7" function="internal">
        <lane id=":1121799648_7_0" index="0" speed="18.06" length="7.14" shape="651.47,207.80 654.29,207.72 656.46,208.56 657.76,210.06"/>
    </edge>
    <edge id=":1121799648_8" function="internal">
        <lane id=":1121799648_8_0" index="0" speed="22.22" length="2.41" shape="651.47,207.80 652.83,208.40 653.37,209.14"/>
    </edge>
    <edge id=":1121799648_10" function="internal">
        <lane id=":1121799648_10_0" index="0" speed="18.06" length="3.18" shape="657.76,210.06 657.99,210.33 658.87,213.02"/>
    </edge>
    <edge id=":1121799648_11" function="internal">
        <lane id=":1121799648_11_0" index="0" speed="22.22" length="2.41" shape="653.37,209.14 653.11,210.03 652.03,211.05"/>
    </edge>
    <edge id=":1121799653_0" function="internal">
        <lane id=":1121799653_0_0" index="0" speed="13.89" length="5.02" shape="677.63,338.80 677.20,337.50 676.46,336.64 675.39,336.24 674.01,336.28"/>
    </edge>
    <edge id=":1121799653_1" function="internal">
        <lane id=":1121799653_1_0" index="0" speed="13.89" length="9.50" shape="677.63,338.80 675.98,329.44"/>
    </edge>
    <edge id=":1121799653_2" function="internal">
        <lane id=":1121799653_2_0" index="0" speed="13.89" length="2.41" shape="677.63,338.80 678.23,337.44 678.97,336.89"/>
    </edge>
    <edge id=":1121799653_9" function="internal">
        <lane id=":1121799653_9_0" index="0" speed="13.89" length="2.41" shape="678.97,336.89 679.85,337.15 680.88,338.23"/>
    </edge>
    <edge id=":1121799653_3" function="internal">
        <lane id=":1121799653_3_0" index="0" speed="13.89" length="9.50" shape="679.23,328.87 680.88,338.23"/>
    </edge>
    <edge id=":1121799653_4" function="internal">
        <lane id=":1121799653_4_0" index="0" speed="13.89" length="7.15" shape="679.23,328.87 679.32,331.71 678.48,333.89 676.99,335.17"/>
    </edge>
    <edge id=":1121799653_5" function="internal">
        <lane id=":1121799653_5_0" index="0" speed="13.89" length="2.41" shape="679.23,328.87 678.64,330.23 677.89,330.78"/>
    </edge>
    <edge id=":1121799653_10" function="internal">
        <lane id=":1121799653_10_0" index="0" speed="13.89" length="3.21" shape="676.99,335.17 676.71,335.41 674.01,336.28"/>
    </edge>
    <edge id=":1121799653_11" function="internal">
        <lane id=":1121799653_11_0" index="0" speed="13.89" length="2.41" shape="677.89,330.78 677.01,330.52 675.98,329.44"/>
    </edge>
    <edge id=":1121799653_6" function="internal">
        <lane id=":1121799653_6_0" index="0" speed="13.89" length="5.01" shape="673.46,333.02 674.76,332.60 675.62,331.87 676.03,330.81 675.98,329.44"/>
    </edge>
    <edge id=":1121799653_7" function="internal">
        <lane id=":1121799653_7_0" index="0" speed="13.89" length="3.19" shape="673.46,333.02 676.29,332.95 676.62,333.07"/>
    </edge>
    <edge id=":1121799653_8" function="internal">
        <lane id=":1121799653_8_0" index="0" speed="13.89" length="2.41" shape="673.46,333.02 674.81,333.63 675.36,334.37"/>
    </edge>
    <edge id=":1121799653_12" function="internal">
        <lane id=":1121799653_12_0" index="0" speed="13.89" length="7.13" shape="676.62,333.07 678.47,333.79 680.00,335.55 680.88,338.23"/>
    </edge>
    <edge id=":1121799653_13" function="internal">
        <lane id=":1121799653_13_0" index="0" speed="13.89" length="2.41" shape="675.36,334.37 675.09,335.26 674.01,336.28"/>
    </edge>
    <edge id=":1121799655_0" function="internal">
        <lane id=":1121799655_0_0" index="0" speed="13.89" length="5.00" shape="685.69,384.66 685.26,383.36 684.52,382.51 683.46,382.10 682.09,382.15"/>
    </edge>
    <edge id=":1121799655_1" function="internal">
        <lane id=":1121799655_1_0" index="0" speed="13.89" length="9.50" shape="685.69,384.66 684.04,375.31"/>
    </edge>
    <edge id=":1121799655_2" function="internal">
        <lane id=":1121799655_2_0" index="0" speed="13.89" length="2.41" shape="685.69,384.66 686.28,383.30 687.03,382.75"/>
    </edge>
    <edge id=":1121799655_9" function="internal">
        <lane id=":1121799655_9_0" index="0" speed="13.89" length="2.41" shape="687.03,382.75 687.91,383.02 688.94,384.09"/>
    </edge>
    <edge id=":1121799655_3" function="internal">
        <lane id=":1121799655_3_0" index="0" speed="13.89" length="9.50" shape="687.29,374.74 688.94,384.09"/>
    </edge>
    <edge id=":1121799655_4" function="internal">
        <lane id=":1121799655_4_0" index="0" speed="13.89" length="7.14" shape="687.29,374.74 687.38,377.56 686.54,379.73 685.05,381.03"/>
    </edge>
    <edge id=":1121799655_5" function="internal">
        <lane id=":1121799655_5_0" index="0" speed="13.89" length="2.41" shape="687.29,374.74 686.69,376.10 685.95,376.65"/>
    </edge>
    <edge id=":1121799655_10" function="internal">
        <lane id=":1121799655_10_0" index="0" speed="13.89" length="3.19" shape="685.05,381.03 684.78,381.27 682.09,382.15"/>
    </edge>
    <edge id=":1121799655_11" function="internal">
        <lane id=":1121799655_11_0" index="0" speed="13.89" length="2.41" shape="685.95,376.65 685.07,376.38 684.04,375.31"/>
    </edge>
    <edge id=":1121799655_6" function="internal">
        <lane id=":1121799655_6_0" index="0" speed="13.89" length="5.01" shape="681.51,378.90 682.82,378.47 683.68,377.73 684.08,376.68 684.04,375.31"/>
    </edge>
    <edge id=":1121799655_7" function="internal">
        <lane id=":1121799655_7_0" index="0" speed="13.89" length="3.19" shape="681.51,378.90 684.34,378.80 684.68,378.93"/>
    </edge>
    <edge id=":1121799655_8" function="internal">
        <lane id=":1121799655_8_0" index="0" speed="13.89" length="2.41" shape="681.51,378.90 682.87,379.50 683.43,380.24"/>
    </edge>
    <edge id=":1121799655_12" function="internal">
        <lane id=":1121799655_12_0" index="0" speed="13.89" length="7.14" shape="684.68,378.93 686.52,379.64 688.06,381.40 688.94,384.09"/>
    </edge>
    <edge id=":1121799655_13" function="internal">
        <lane id=":1121799655_13_0" index="0" speed="13.89" length="2.41" shape="683.43,380.24 683.17,381.12 682.09,382.15"/>
    </edge>
    <edge id=":1121799656_0" function="internal">
        <lane id=":1121799656_0_0" index="0" speed="13.89" length="5.00" shape="694.99,437.53 694.56,436.23 693.82,435.37 692.76,434.97 691.39,435.02"/>
    </edge>
    <edge id=":1121799656_1" function="internal">
        <lane id=":1121799656_1_0" index="0" speed="13.89" length="9.50" shape="694.99,437.53 693.34,428.17"/>
    </edge>
    <edge id=":1121799656_2" function="internal">
        <lane id=":1121799656_2_0" index="0" speed="13.89" length="2.41" shape="694.99,437.53 695.58,436.17 696.32,435.62"/>
    </edge>
    <edge id=":1121799656_9" function="internal">
        <lane id=":1121799656_9_0" index="0" speed="13.89" length="2.41" shape="696.32,435.62 697.21,435.88 698.24,436.96"/>
    </edge>
    <edge id=":1121799656_3" function="internal">
        <lane id=":1121799656_3_0" index="0" speed="13.89" length="9.50" shape="696.59,427.60 698.24,436.96"/>
    </edge>
    <edge id=":1121799656_4" function="internal">
        <lane id=":1121799656_4_0" index="0" speed="13.89" length="7.14" shape="696.59,427.60 696.68,430.42 695.84,432.60 694.35,433.90"/>
    </edge>
    <edge id=":1121799656_5" function="internal">
        <lane id=":1121799656_5_0" index="0" speed="13.89" length="2.41" shape="696.59,427.60 695.99,428.96 695.25,429.51"/>
    </edge>
    <edge id=":1121799656_10" function="internal">
        <lane id=":1121799656_10_0" index="0" speed="13.89" length="3.18" shape="694.35,433.90 694.08,434.13 691.39,435.02"/>
    </edge>
    <edge id=":1121799656_11" function="internal">
        <lane id=":1121799656_11_0" index="0" speed="13.89" length="2.41" shape="695.25,429.51 694.37,429.25 693.34,428.17"/>
    </edge>
    <edge id=":1121799656_6" function="internal">
        <lane id=":1121799656_6_0" index="0" speed="13.89" length="5.01" shape="690.82,431.77 692.12,431.34 692.98,430.60 693.38,429.54 693.34,428.17"/>
    </edge>
    <edge id=":1121799656_7" function="internal">
        <lane id=":1121799656_7_0" index="0" speed="13.89" length="3.19" shape="690.82,431.77 693.65,431.67 693.98,431.80"/>
    </edge>
    <edge id=":1121799656_8" function="internal">
        <lane id=":1121799656_8_0" index="0" speed="13.89" length="2.41" shape="690.82,431.77 692.18,432.36 692.73,433.10"/>
    </edge>
    <edge id=":1121799656_12" function="internal">
        <lane id=":1121799656_12_0" index="0" speed="13.89" length="7.14" shape="693.98,431.80 695.83,432.50 697.36,434.27 698.24,436.96"/>
    </edge>
    <edge id=":1121799656_13" function="internal">
        <lane id=":1121799656_13_0" index="0" speed="13.89" length="2.41" shape="692.73,433.10 692.47,433.99 691.39,435.02"/>
    </edge>
    <edge id=":1121799657_0" function="internal">
        <lane id=":1121799657_0_0" index="0" speed="13.89" length="9.50" shape="745.08,722.55 743.43,713.19"/>
    </edge>
    <edge id=":1121799657_1" function="internal">
        <lane id=":1121799657_1_0" index="0" speed="13.89" length="7.15" shape="745.08,722.55 744.99,719.71 745.83,717.53 747.32,716.25"/>
    </edge>
    <edge id=":1121799657_2" function="internal">
        <lane id=":1121799657_2_0" index="0" speed="13.89" length="2.41" shape="745.08,722.55 745.68,721.19 746.42,720.64"/>
    </edge>
    <edge id=":1121799657_9" function="internal">
        <lane id=":1121799657_9_0" index="0" speed="13.89" length="3.21" shape="747.32,716.25 747.60,716.00 750.31,715.14"/>
    </edge>
    <edge id=":1121799657_10" function="internal">
        <lane id=":1121799657_10_0" index="0" speed="13.89" length="2.41" shape="746.42,720.64 747.30,720.90 748.33,721.98"/>
    </edge>
    <edge id=":1121799657_3" function="internal">
        <lane id=":1121799657_3_0" index="0" speed="13.89" length="5.01" shape="750.86,718.40 749.55,718.81 748.69,719.55 748.28,720.60 748.33,721.98"/>
    </edge>
    <edge id=":1121799657_4" function="internal">
        <lane id=":1121799657_4_0" index="0" speed="13.89" length="3.19" shape="750.86,718.40 748.02,718.47 747.69,718.34"/>
    </edge>
    <edge id=":1121799657_5" function="internal">
        <lane id=":1121799657_5_0" index="0" speed="13.89" length="2.41" shape="750.86,718.40 749.50,717.79 748.96,717.04"/>
    </edge>
    <edge id=":1121799657_11" function="internal">
        <lane id=":1121799657_11_0" index="0" speed="13.89" length="7.13" shape="747.69,718.34 745.84,717.63 744.31,715.87 743.43,713.19"/>
    </edge>
    <edge id=":1121799657_12" function="internal">
        <lane id=":1121799657_12_0" index="0" speed="13.89" length="2.41" shape="748.96,717.04 749.23,716.16 750.31,715.14"/>
    </edge>
    <edge id=":1121799657_6" function="internal">
        <lane id=":1121799657_6_0" index="0" speed="13.89" length="5.03" shape="746.68,712.62 747.11,713.92 747.86,714.77 748.92,715.18 750.31,715.14"/>
    </edge>
    <edge id=":1121799657_7" function="internal">
        <lane id=":1121799657_7_0" index="0" speed="13.89" length="9.50" shape="746.68,712.62 748.33,721.98"/>
    </edge>
    <edge id=":1121799657_8" function="internal">
        <lane id=":1121799657_8_0" index="0" speed="13.89" length="2.41" shape="746.68,712.62 746.08,713.98 745.34,714.53"/>
    </edge>
    <edge id=":1121799657_13" function="internal">
        <lane id=":1121799657_13_0" index="0" speed="13.89" length="2.41" shape="745.34,714.53 744.46,714.27 743.43,713.19"/>
    </edge>
    <edge id=":1121799660_0" function="internal">
        <lane id=":1121799660_0_0" index="0" speed="13.89" length="4.82" shape="840.66,699.96 842.02,700.56 842.56,701.31 842.29,702.19 841.21,703.21"/>
    </edge>
    <edge id=":1121799662_0" function="internal">
        <lane id=":1121799662_0_0" index="0" speed="13.89" length="4.82" shape="807.58,246.99 808.94,247.61 809.47,248.36 809.19,249.24 808.10,250.25"/>
    </edge>
    <edge id=":1121799675_0" function="internal">
        <lane id=":1121799675_0_0" index="0" speed="13.89" length="9.50" shape="338.41,148.90 336.89,139.52"/>
    </edge>
    <edge id=":1121799675_1" function="internal">
        <lane id=":1121799675_1_0" index="0" speed="13.89" length="7.13" shape="338.41,148.90 338.36,146.08 339.22,143.91 340.73,142.63"/>
    </edge>
    <edge id=":1121799675_2" function="internal">
        <lane id=":1121799675_2_0" index="0" speed="13.89" length="2.41" shape="338.41,148.90 339.02,147.54 339.77,147.00"/>
    </edge>
    <edge id=":1121799675_9" function="internal">
        <lane id=":1121799675_9_0" index="0" speed="13.89" length="3.19" shape="340.73,142.63 341.01,142.40 343.71,141.54"/>
    </edge>
    <edge id=":1121799675_10" function="internal">
        <lane id=":1121799675_10_0" index="0" speed="13.89" length="2.41" shape="339.77,147.00 340.65,147.28 341.67,148.37"/>
    </edge>
    <edge id=":1121799675_3" function="internal">
        <lane id=":1121799675_3_0" index="0" speed="13.89" length="5.02" shape="344.26,144.80 342.94,145.21 342.07,145.95 341.64,147.00 341.67,148.37"/>
    </edge>
    <edge id=":1121799675_4" function="internal">
        <lane id=":1121799675_4_0" index="0" speed="13.89" length="3.21" shape="344.26,144.80 341.42,144.87 341.08,144.73"/>
    </edge>
    <edge id=":1121799675_5" function="internal">
        <lane id=":1121799675_5_0" index="0" speed="13.89" length="2.41" shape="344.26,144.80 342.90,144.19 342.35,143.44"/>
    </edge>
    <edge id=":1121799675_11" function="internal">
        <lane id=":1121799675_11_0" index="0" speed="13.89" length="7.14" shape="341.08,144.73 339.24,144.01 337.73,142.23 336.89,139.52"/>
    </edge>
    <edge id=":1121799675_12" function="internal">
        <lane id=":1121799675_12_0" index="0" speed="13.89" length="2.41" shape="342.35,143.44 342.62,142.56 343.71,141.54"/>
    </edge>
    <edge id=":1121799675_6" function="internal">
        <lane id=":1121799675_6_0" index="0" speed="13.89" length="5.01" shape="340.14,138.99 340.55,140.30 341.28,141.16 342.33,141.58 343.71,141.54"/>
    </edge>
    <edge id=":1121799675_7" function="internal">
        <lane id=":1121799675_7_0" index="0" speed="13.89" length="9.50" shape="340.14,138.99 341.67,148.37"/>
    </edge>
    <edge id=":1121799675_8" function="internal">
        <lane id=":1121799675_8_0" index="0" speed="13.89" length="2.41" shape="340.14,138.99 339.53,140.34 338.78,140.88"/>
    </edge>
    <edge id=":1121799675_13" function="internal">
        <lane id=":1121799675_13_0" index="0" speed="13.89" length="2.41" shape="338.78,140.88 337.90,140.61 336.89,139.52"/>
    </edge>
    <edge id=":1121799676_0" function="internal">
        <lane id=":1121799676_0_0" index="0" speed="13.89" length="9.50" shape="454.97,126.15 445.60,127.72"/>
    </edge>
    <edge id=":1121799676_1" function="internal">
        <lane id=":1121799676_1_0" index="0" speed="13.89" length="7.15" shape="454.97,126.15 452.12,126.22 449.95,125.36 448.68,123.86"/>
    </edge>
    <edge id=":1121799676_2" function="internal">
        <lane id=":1121799676_2_0" index="0" speed="13.89" length="2.41" shape="454.97,126.15 453.61,125.54 453.07,124.79"/>
    </edge>
    <edge id=":1121799676_9" function="internal">
        <lane id=":1121799676_9_0" index="0" speed="13.89" length="3.22" shape="448.68,123.86 448.44,123.57 447.60,120.85"/>
    </edge>
    <edge id=":1121799676_10" function="internal">
        <lane id=":1121799676_10_0" index="0" speed="13.89" length="2.41" shape="453.07,124.79 453.34,123.91 454.42,122.89"/>
    </edge>
    <edge id=":1121799676_3" function="internal">
        <lane id=":1121799676_3_0" index="0" speed="13.89" length="5.01" shape="450.86,120.33 451.27,121.65 451.99,122.51 453.05,122.93 454.42,122.89"/>
    </edge>
    <edge id=":1121799676_4" function="internal">
        <lane id=":1121799676_4_0" index="0" speed="13.89" length="3.20" shape="450.86,120.33 450.91,123.17 450.78,123.51"/>
    </edge>
    <edge id=":1121799676_5" function="internal">
        <lane id=":1121799676_5_0" index="0" speed="13.89" length="2.41" shape="450.86,120.33 450.24,121.68 449.49,122.22"/>
    </edge>
    <edge id=":1121799676_11" function="internal">
        <lane id=":1121799676_11_0" index="0" speed="13.89" length="7.13" shape="450.78,123.51 450.05,125.35 448.28,126.87 445.60,127.72"/>
    </edge>
    <edge id=":1121799676_12" function="internal">
        <lane id=":1121799676_12_0" index="0" speed="13.89" length="2.41" shape="449.49,122.22 448.61,121.94 447.60,120.85"/>
    </edge>
    <edge id=":1121799676_6" function="internal">
        <lane id=":1121799676_6_0" index="0" speed="13.89" length="5.04" shape="445.05,124.47 446.35,124.05 447.21,123.31 447.63,122.24 447.60,120.85"/>
    </edge>
    <edge id=":1121799676_7" function="internal">
        <lane id=":1121799676_7_0" index="0" speed="13.89" length="9.50" shape="445.05,124.47 454.42,122.89"/>
    </edge>
    <edge id=":1121799676_8" function="internal">
        <lane id=":1121799676_8_0" index="0" speed="13.89" length="2.41" shape="445.05,124.47 446.41,125.08 446.95,125.82"/>
    </edge>
    <edge id=":1121799676_13" function="internal">
        <lane id=":1121799676_13_0" index="0" speed="13.89" length="2.41" shape="446.95,125.82 446.68,126.70 445.60,127.72"/>
    </edge>
    <edge id=":1121799677_0" function="internal">
        <lane id=":1121799677_0_0" index="0" speed="13.89" length="5.02" shape="722.96,84.17 722.56,82.85 721.84,81.98 720.79,81.57 719.41,81.60"/>
    </edge>
    <edge id=":1121799677_1" function="internal">
        <lane id=":1121799677_1_0" index="0" speed="13.89" length="3.23" shape="722.96,84.17 722.93,81.33 723.07,80.97"/>
    </edge>
    <edge id=":1121799677_2" function="internal">
        <lane id=":1121799677_2_0" index="0" speed="13.89" length="2.41" shape="722.96,84.17 723.59,82.83 724.35,82.30"/>
    </edge>
    <edge id=":1121799677_9" function="internal">
        <lane id=":1121799677_9_0" index="0" speed="13.89" length="7.08" shape="723.07,80.97 723.79,79.14 725.55,77.61 728.20,76.74"/>
    </edge>
    <edge id=":1121799677_10" function="internal">
        <lane id=":1121799677_10_0" index="0" speed="13.89" length="2.41" shape="724.35,82.30 725.22,82.58 726.22,83.68"/>
    </edge>
    <edge id=":1121799677_3" function="internal">
        <lane id=":1121799677_3_0" index="0" speed="13.89" length="5.08" shape="728.76,79.99 727.47,80.42 726.62,81.18 726.20,82.27 726.22,83.68"/>
    </edge>
    <edge id=":1121799677_4" function="internal">
        <lane id=":1121799677_4_0" index="0" speed="13.89" length="9.49" shape="728.76,79.99 719.41,81.60"/>
    </edge>
    <edge id=":1121799677_5" function="internal">
        <lane id=":1121799677_5_0" index="0" speed="13.89" length="2.41" shape="728.76,79.99 727.40,79.40 726.85,78.65"/>
    </edge>
    <edge id=":1121799677_11" function="internal">
        <lane id=":1121799677_11_0" index="0" speed="13.89" length="2.41" shape="726.85,78.65 727.12,77.77 728.20,76.74"/>
    </edge>
    <edge id=":1121799677_6" function="internal">