<additional>
<inductionLoop id="0" lane="135702868#2_0" pos="44" freq="120" file="map.out"/>
<inductionLoop id="1" lane="224320550#2_0" pos="135" freq="120" file="map.out"/>
<inductionLoop id="2" lane="87307305#1_0" pos="57" freq="120" file="map.out"/>
<inductionLoop id="3" lane="224324773#24_0" pos="65" freq="120" file="map.out"/>
<inductionLoop id="4" lane="224324856#1-AddedOffRampEdge_0" pos="93" freq="120" file="map.out"/>
<inductionLoop id="5" lane="224324856#1-AddedOffRampEdge_1" pos="93" freq="120" file="map.out"/>
<inductionLoop id="6" lane="222636152#0_0" pos="72" freq="120" file="map.out"/>
<inductionLoop id="7" lane="89382508#1-AddedOnRampEdge_0" pos="53" freq="120" file="map.out"/>
<inductionLoop id="8" lane="89382508#1-AddedOnRampEdge_1" pos="53" freq="120" file="map.out"/>
<inductionLoop id="9" lane="89382508#1-AddedOnRampEdge_2" pos="53" freq="120" file="map.out"/>
<inductionLoop id="10" lane="201500332#0_0" pos="202" freq="120" file="map.out"/>
<inductionLoop id="11" lane="149610062#0_0" pos="62" freq="120" file="map.out"/>
<inductionLoop id="12" lane="228714435#0_0" pos="32" freq="120" file="map.out"/>
<inductionLoop id="13" lane="222773413#3_0" pos="129" freq="120" file="map.out"/>
<inductionLoop id="14" lane="-99884557#1_0" pos="133" freq="120" file="map.out"/>
<inductionLoop id="15" lane="201576141#1_0" pos="33" freq="120" file="map.out"/>
<inductionLoop id="16" lane="224277991#1_0" pos="24" freq="120" file="map.out"/>
<inductionLoop id="17" lane="224277988_0" pos="324" freq="120" file="map.out"/>
<inductionLoop id="18" lane="224324828#1_0" pos="87" freq="120" file="map.out"/>
<inductionLoop id="19" lane="-228711964#1_0" pos="36" freq="120" file="map.out"/>
<inductionLoop id="20" lane="201500280#2_0" pos="69" freq="120" file="map.out"/>
<inductionLoop id="21" lane="96032130#0_0" pos="36" freq="120" file="map.out"/>
<inductionLoop id="22" lane="10710912#0-AddedOffRampEdge_0" pos="82" freq="120" file="map.out"/>
<inductionLoop id="23" lane="10710912#0-AddedOffRampEdge_1" pos="82" freq="120" file="map.out"/>
<inductionLoop id="24" lane="201500523#1_0" pos="214" freq="120" file="map.out"/>
<inductionLoop id="25" lane="-87307088#3_0" pos="139" freq="120" file="map.out"/>
<inductionLoop id="26" lane="-87307088#5_0" pos="81" freq="120" file="map.out"/>
<inductionLoop id="27" lane="223519662#3_0" pos="106" freq="120" file="map.out"/>
<inductionLoop id="28" lane="275467302#0_0" pos="23" freq="120" file="map.out"/>
<inductionLoop id="29" lane="10611120#1-AddedOnRampEdge_0" pos="36" freq="120" file="map.out"/>
<inductionLoop id="30" lane="10611120#1-AddedOnRampEdge_1" pos="36" freq="120" file="map.out"/>
<inductionLoop id="31" lane="10611120#1-AddedOnRampEdge_2" pos="36" freq="120" file="map.out"/>
<inductionLoop id="32" lane="10611120#1-AddedOnRampEdge_3" pos="36" freq="120" file="map.out"/>
<inductionLoop id="33" lane="224279948#1_0" pos="50" freq="120" file="map.out"/>
<inductionLoop id="34" lane="10479198_0" pos="169" freq="120" file="map.out"/>
<inductionLoop id="35" lane="222767225#0_0" pos="413" freq="120" file="map.out"/>
<inductionLoop id="36" lane="-99810830#1_0" pos="18" freq="120" file="map.out"/>
<inductionLoop id="37" lane="100700667#0_0" pos="20" freq="120" file="map.out"/>
<inductionLoop id="38" lane="100700667#5_0" pos="35" freq="120" file="map.out"/>
<inductionLoop id="39" lane="222721813#9-AddedOffRampEdge_0" pos="34" freq="120" file="map.out"/>
<inductionLoop id="40" lane="222721813#9-AddedOffRampEdge_1" pos="34" freq="120" file="map.out"/>
<inductionLoop id="41" lane="222721813#9-AddedOffRampEdge_2" pos="34" freq="120" file="map.out"/>
<inductionLoop id="42" lane="-24503766_0" pos="254" freq="120" file="map.out"/>
<inductionLoop id="43" lane="100240909#5_0" pos="26" freq="120" file="map.out"/>
<inductionLoop id="44" lane="228714008#5_0" pos="74" freq="120" file="map.out"/>
<inductionLoop id="45" lane="-24186247#1_0" pos="36" freq="120" file="map.out"/>
<inductionLoop id="46" lane="228714008#3_0" pos="19" freq="120" file="map.out"/>
<inductionLoop id="47" lane="-24186247#3_0" pos="43" freq="120" file="map.out"/>
<inductionLoop id="48" lane="-222773419#4_0" pos="206" freq="120" file="map.out"/>
<inductionLoop id="49" lane="-228714431#0_0" pos="81" freq="120" file="map.out"/>
<inductionLoop id="50" lane="-100700617#3_0" pos="20" freq="120" file="map.out"/>
<inductionLoop id="51" lane="99885751_0" pos="266" freq="120" file="map.out"/>
<inductionLoop id="52" lane="99885751_1" pos="266" freq="120" file="map.out"/>
<inductionLoop id="53" lane="-223639348#1_0" pos="89" freq="120" file="map.out"/>
<inductionLoop id="54" lane="-228714006#4_0" pos="27" freq="120" file="map.out"/>
<inductionLoop id="55" lane="-224343259#3_0" pos="53" freq="120" file="map.out"/>
<inductionLoop id="56" lane="228710183#1_0" pos="35" freq="120" file="map.out"/>
<inductionLoop id="57" lane="99349233#7_0" pos="56" freq="120" file="map.out"/>
<inductionLoop id="58" lane="99349233#7_1" pos="56" freq="120" file="map.out"/>
<inductionLoop id="59" lane="99349233#7_2" pos="56" freq="120" file="map.out"/>
<inductionLoop id="60" lane="99349233#7_3" pos="56" freq="120" file="map.out"/>
<inductionLoop id="61" lane="-224343243#2_0" pos="64" freq="120" file="map.out"/>
<inductionLoop id="62" lane="-224343243#1_0" pos="63" freq="120" file="map.out"/>
<inductionLoop id="63" lane="-222773380#0_0" pos="147" freq="120" file="map.out"/>
<inductionLoop id="64" lane="-222773380#1_0" pos="57" freq="120" file="map.out"/>
<inductionLoop id="65" lane="201500334#0_0" pos="263" freq="120" file="map.out"/>
<inductionLoop id="66" lane="-224337210#1_0" pos="49" freq="120" file="map.out"/>
<inductionLoop id="67" lane="213572597#0_0" pos="138" freq="120" file="map.out"/>
<inductionLoop id="68" lane="99349233#9_0" pos="21" freq="120" file="map.out"/>
<inductionLoop id="69" lane="99349233#9_1" pos="21" freq="120" file="map.out"/>
<inductionLoop id="70" lane="-24396073#2_0" pos="123" freq="120" file="map.out"/>
<inductionLoop id="71" lane="-24396073#2_1" pos="123" freq="120" file="map.out"/>
<inductionLoop id="72" lane="230228290#2_0" pos="39" freq="120" file="map.out"/>
<inductionLoop id="73" lane="230228290#2_1" pos="39" freq="120" file="map.out"/>
<inductionLoop id="74" lane="149780035#0-AddedOffRampEdge_0" pos="69" freq="120" file="map.out"/>
<inductionLoop id="75" lane="149780035#0-AddedOffRampEdge_1" pos="69" freq="120" file="map.out"/>
<inductionLoop id="76" lane="-273219971#0_0" pos="30" freq="120" file="map.out"/>
<inductionLoop id="77" lane="224371141#3_0" pos="51" freq="120" file="map.out"/>
<inductionLoop id="78" lane="224371141#2_0" pos="69" freq="120" file="map.out"/>
<inductionLoop id="79" lane="224371141#0_0" pos="68" freq="120" file="map.out"/>
<inductionLoop id="80" lane="10478960#1_0" pos="328" freq="120" file="map.out"/>
<inductionLoop id="81" lane="99810183#1_0" pos="56" freq="120" file="map.out"/>
<inductionLoop id="82" lane="-213572636#3_0" pos="534" freq="120" file="map.out"/>
<inductionLoop id="83" lane="-213572636#2_0" pos="276" freq="120" file="map.out"/>
<inductionLoop id="84" lane="-87307010#2_0" pos="24" freq="120" file="map.out"/>
<inductionLoop id="85" lane="-87307133_0" pos="35" freq="120" file="map.out"/>
<inductionLoop id="86" lane="-201576145#0_0" pos="20" freq="120" file="map.out"/>
<inductionLoop id="87" lane="244556267#3_0" pos="25" freq="120" file="map.out"/>
<inductionLoop id="88" lane="78982771#17_0" pos="24" freq="120" file="map.out"/>
<inductionLoop id="89" lane="-87306991_0" pos="70" freq="120" file="map.out"/>
<inductionLoop id="90" lane="-228710346#2_0" pos="34" freq="120" file="map.out"/>
<inductionLoop id="91" lane="228714453#0_0" pos="13" freq="120" file="map.out"/>
<inductionLoop id="92" lane="78982771#11_0" pos="22" freq="120" file="map.out"/>
<inductionLoop id="93" lane="78982771#11_1" pos="22" freq="120" file="map.out"/>
<inductionLoop id="94" lane="223639362#1_0" pos="134" freq="120" file="map.out"/>
<inductionLoop id="95" lane="-222637859#3_0" pos="47" freq="120" file="map.out"/>
<inductionLoop id="96" lane="-224343210#4_0" pos="74" freq="120" file="map.out"/>
<inductionLoop id="97" lane="199806159#1-AddedOnRampEdge_0" pos="81" freq="120" file="map.out"/>
<inductionLoop id="98" lane="199806159#1-AddedOnRampEdge_1" pos="81" freq="120" file="map.out"/>
<inductionLoop id="99" lane="199806159#1-AddedOnRampEdge_2" pos="81" freq="120" file="map.out"/>
<inductionLoop id="100" lane="199806159#1-AddedOnRampEdge_3" pos="81" freq="120" file="map.out"/>
<inductionLoop id="101" lane="-201500462#0_0" pos="359" freq="120" file="map.out"/>
<inductionLoop id="102" lane="275464049#2_0" pos="58" freq="120" file="map.out"/>
<inductionLoop id="103" lane="228710171#0_0" pos="63" freq="120" file="map.out"/>
<inductionLoop id="104" lane="223639381#2_0" pos="125" freq="120" file="map.out"/>
<inductionLoop id="105" lane="224344473#1_0" pos="48" freq="120" file="map.out"/>
<inductionLoop id="106" lane="224344473#0_0" pos="35" freq="120" file="map.out"/>
<inductionLoop id="107" lane="-87307173#1_0" pos="11" freq="120" file="map.out"/>
<inductionLoop id="108" lane="87307302#0_0" pos="36" freq="120" file="map.out"/>
<inductionLoop id="109" lane="-105309213#1_0" pos="53" freq="120" file="map.out"/>
<inductionLoop id="110" lane="-228712833#0_0" pos="576" freq="120" file="map.out"/>
<inductionLoop id="111" lane="10712854#4_0" pos="41" freq="120" file="map.out"/>
<inductionLoop id="112" lane="222636736#3_0" pos="20" freq="120" file="map.out"/>
<inductionLoop id="113" lane="-201500334#0_0" pos="449" freq="120" file="map.out"/>
<inductionLoop id="114" lane="-228711960_0" pos="35" freq="120" file="map.out"/>
<inductionLoop id="115" lane="-201500334#2_0" pos="10" freq="120" file="map.out"/>
<inductionLoop id="116" lane="-194080899#1_0" pos="27" freq="120" file="map.out"/>
<inductionLoop id="117" lane="222637871#5_0" pos="12" freq="120" file="map.out"/>
<inductionLoop id="118" lane="-228711967_0" pos="72" freq="120" file="map.out"/>
<inductionLoop id="119" lane="228713982#1_0" pos="20" freq="120" file="map.out"/>
<inductionLoop id="120" lane="24502467#4-AddedOnRampEdge_0" pos="30" freq="120" file="map.out"/>
<inductionLoop id="121" lane="24502467#4-AddedOnRampEdge_1" pos="30" freq="120" file="map.out"/>
<inductionLoop id="122" lane="24502467#4-AddedOnRampEdge_2" pos="30" freq="120" file="map.out"/>
<inductionLoop id="123" lane="-223517346#0_0" pos="46" freq="120" file="map.out"/>
<inductionLoop id="124" lane="224324837#4_0" pos="39" freq="120" file="map.out"/>
<inductionLoop id="125" lane="-275465535#0_0" pos="120" freq="120" file="map.out"/>
<inductionLoop id="126" lane="155310142#8_0" pos="45" freq="120" file="map.out"/>
<inductionLoop id="127" lane="155310142#8_1" pos="45" freq="120" file="map.out"/>
<inductionLoop id="128" lane="-228710161_0" pos="204" freq="120" file="map.out"/>
<inductionLoop id="129" lane="-180610664#1_0" pos="29" freq="120" file="map.out"/>
<inductionLoop id="130" lane="-98836472#1_0" pos="20" freq="120" file="map.out"/>
<inductionLoop id="131" lane="213572548_0" pos="35" freq="120" file="map.out"/>
<inductionLoop id="132" lane="213572628#0_0" pos="64" freq="120" file="map.out"/>
<inductionLoop id="133" lane="275466576#3_0" pos="116" freq="120" file="map.out"/>
<inductionLoop id="134" lane="-223517439#3_0" pos="83" freq="120" file="map.out"/>
<inductionLoop id="135" lane="223518164#2_0" pos="14" freq="120" file="map.out"/>
<inductionLoop id="136" lane="223518164#2_1" pos="14" freq="120" file="map.out"/>
<inductionLoop id="137" lane="-24186156#7_0" pos="81" freq="120" file="map.out"/>
<inductionLoop id="138" lane="223519698#1_0" pos="11" freq="120" file="map.out"/>
<inductionLoop id="139" lane="-199894479#5_0" pos="54" freq="120" file="map.out"/>
<inductionLoop id="140" lane="-199894479#6_0" pos="254" freq="120" file="map.out"/>
<inductionLoop id="141" lane="87307115#3_0" pos="167" freq="120" file="map.out"/>
<inductionLoop id="142" lane="223518164#9_0" pos="40" freq="120" file="map.out"/>
<inductionLoop id="143" lane="223518164#9_1" pos="40" freq="120" file="map.out"/>
<inductionLoop id="144" lane="-228710350#0_0" pos="36" freq="120" file="map.out"/>
<inductionLoop id="145" lane="24494640#1-AddedOnRampEdge_0" pos="39" freq="120" file="map.out"/>
<inductionLoop id="146" lane="24494640#1-AddedOnRampEdge_1" pos="39" freq="120" file="map.out"/>
<inductionLoop id="147" lane="24494640#1-AddedOnRampEdge_2" pos="39" freq="120" file="map.out"/>
<inductionLoop id="148" lane="24494640#1-AddedOnRampEdge_3" pos="39" freq="120" file="map.out"/>
<inductionLoop id="149" lane="180241133#1_0" pos="94" freq="120" file="map.out"/>
<inductionLoop id="150" lane="180241133#0_0" pos="73" freq="120" file="map.out"/>
<inductionLoop id="151" lane="222723812_0" pos="63" freq="120" file="map.out"/>
<inductionLoop id="152" lane="222723812_1" pos="63" freq="120" file="map.out"/>
<inductionLoop id="153" lane="-224371157_0" pos="30" freq="120" file="map.out"/>
<inductionLoop id="154" lane="276687864#1_0" pos="66" freq="120" file="map.out"/>
<inductionLoop id="155" lane="-222778210_0" pos="195" freq="120" file="map.out"/>
<inductionLoop id="156" lane="-276687864#3_0" pos="14" freq="120" file="map.out"/>
<inductionLoop id="157" lane="87307180_0" pos="55" freq="120" file="map.out"/>
<inductionLoop id="158" lane="222637876#0_0" pos="97" freq="120" file="map.out"/>
<inductionLoop id="159" lane="-201479194#3_0" pos="264" freq="120" file="map.out"/>
<inductionLoop id="160" lane="-224343291#1_0" pos="156" freq="120" file="map.out"/>
<inductionLoop id="161" lane="222111135#5-AddedOnRampEdge_0" pos="68" freq="120" file="map.out"/>
<inductionLoop id="162" lane="222111135#5-AddedOnRampEdge_1" pos="68" freq="120" file="map.out"/>
<inductionLoop id="163" lane="222111135#5-AddedOnRampEdge_2" pos="68" freq="120" file="map.out"/>
<inductionLoop id="164" lane="99370703_0" pos="199" freq="120" file="map.out"/>
<inductionLoop id="165" lane="223643130#1_0" pos="52" freq="120" file="map.out"/>
<inductionLoop id="166" lane="222721799+222721802#1_0" pos="26" freq="120" file="map.out"/>
<inductionLoop id="167" lane="222721799+222721802#1_1" pos="26" freq="120" file="map.out"/>
<inductionLoop id="168" lane="222721799+222721802#1_2" pos="26" freq="120" file="map.out"/>
<inductionLoop id="169" lane="222721799+222721802#1_3" pos="26" freq="120" file="map.out"/>
<inductionLoop id="170" lane="-87307246#1_0" pos="28" freq="120" file="map.out"/>
<inductionLoop id="171" lane="-275467693#0_0" pos="24" freq="120" file="map.out"/>
<inductionLoop id="172" lane="97646200#2_0" pos="119" freq="120" file="map.out"/>
<inductionLoop id="173" lane="-275466501#1_0" pos="13" freq="120" file="map.out"/>
<inductionLoop id="174" lane="223519669#6_0" pos="94" freq="120" file="map.out"/>
<inductionLoop id="175" lane="224343319_0" pos="67" freq="120" file="map.out"/>
<inductionLoop id="176" lane="-228709329#1_0" pos="18" freq="120" file="map.out"/>
<inductionLoop id="177" lane="224324851#1_0" pos="20" freq="120" file="map.out"/>
<inductionLoop id="178" lane="275467753#3_0" pos="27" freq="120" file="map.out"/>
<inductionLoop id="179" lane="224344471#13_0" pos="51" freq="120" file="map.out"/>
<inductionLoop id="180" lane="-99369089_0" pos="162" freq="120" file="map.out"/>
<inductionLoop id="181" lane="-99369089_1" pos="162" freq="120" file="map.out"/>
<inductionLoop id="182" lane="201479198#1_0" pos="160" freq="120" file="map.out"/>
<inductionLoop id="183" lane="275467302#3_0" pos="40" freq="120" file="map.out"/>
<inductionLoop id="184" lane="-228710182#1_0" pos="70" freq="120" file="map.out"/>
<inductionLoop id="185" lane="224343317#7_0" pos="28" freq="120" file="map.out"/>
<inductionLoop id="186" lane="228711962#1_0" pos="68" freq="120" file="map.out"/>
<inductionLoop id="187" lane="-228710183#2_0" pos="35" freq="120" file="map.out"/>
<inductionLoop id="188" lane="-228710183#3_0" pos="19" freq="120" file="map.out"/>
<inductionLoop id="189" lane="-96033950#1_0" pos="28" freq="120" file="map.out"/>
<inductionLoop id="190" lane="88376137#0_0" pos="79" freq="120" file="map.out"/>
<inductionLoop id="191" lane="-228710175#0_0" pos="102" freq="120" file="map.out"/>
<inductionLoop id="192" lane="-201479199#2_0" pos="519" freq="120" file="map.out"/>
<inductionLoop id="193" lane="95984162#2_0" pos="97" freq="120" file="map.out"/>
<inductionLoop id="194" lane="95984162#2_1" pos="97" freq="120" file="map.out"/>
<inductionLoop id="195" lane="222721809#2_0" pos="323" freq="120" file="map.out"/>
<inductionLoop id="196" lane="222721809#2_1" pos="323" freq="120" file="map.out"/>
<inductionLoop id="197" lane="89418746_0" pos="361" freq="120" file="map.out"/>
<inductionLoop id="198" lane="213572625#0_0" pos="84" freq="120" file="map.out"/>
<inductionLoop id="199" lane="180610676#0_0" pos="140" freq="120" file="map.out"/>
<inductionLoop id="200" lane="228709344#5_0" pos="53" freq="120" file="map.out"/>
<inductionLoop id="201" lane="228709344#4_0" pos="80" freq="120" file="map.out"/>
<inductionLoop id="202" lane="224277989#0_0" pos="13" freq="120" file="map.out"/>
<inductionLoop id="203" lane="222721802#5_0" pos="34" freq="120" file="map.out"/>
<inductionLoop id="204" lane="222721802#5_1" pos="34" freq="120" file="map.out"/>
<inductionLoop id="205" lane="-224324831#1_0" pos="19" freq="120" file="map.out"/>
<inductionLoop id="206" lane="-228709336_0" pos="39" freq="120" file="map.out"/>
<inductionLoop id="207" lane="-223643134#1_0" pos="39" freq="120" file="map.out"/>
<inductionLoop id="208" lane="-228713994#1_0" pos="12" freq="120" file="map.out"/>
<inductionLoop id="209" lane="228710347#1_0" pos="29" freq="120" file="map.out"/>
<inductionLoop id="210" lane="-224343276#3_0" pos="79" freq="120" file="map.out"/>
<inductionLoop id="211" lane="222111135#6+222111168_0" pos="24" freq="120" file="map.out"/>
<inductionLoop id="212" lane="222111135#6+222111168_1" pos="24" freq="120" file="map.out"/>
<inductionLoop id="213" lane="222111135#6+222111168_2" pos="24" freq="120" file="map.out"/>
<inductionLoop id="214" lane="222111135#6+222111168_3" pos="24" freq="120" file="map.out"/>
<inductionLoop id="215" lane="-201479193#4_0" pos="77" freq="120" file="map.out"/>
<inductionLoop id="216" lane="78982767_0" pos="263" freq="120" file="map.out"/>
<inductionLoop id="217" lane="224324856#0_0" pos="225" freq="120" file="map.out"/>
<inductionLoop id="218" lane="180610664#2_0" pos="12" freq="120" file="map.out"/>
<inductionLoop id="219" lane="-224343227#3_0" pos="24" freq="120" file="map.out"/>
<inductionLoop id="220" lane="-213572571#2_0" pos="250" freq="120" file="map.out"/>
<inductionLoop id="221" lane="201576133#1_0" pos="38" freq="120" file="map.out"/>
<inductionLoop id="222" lane="-24396747#6_0" pos="80" freq="120" file="map.out"/>
<inductionLoop id="223" lane="275462553#0_0" pos="58" freq="120" file="map.out"/>
<inductionLoop id="224" lane="299886042_0" pos="31" freq="120" file="map.out"/>
<inductionLoop id="225" lane="-224371173#2_0" pos="102" freq="120" file="map.out"/>
<inductionLoop id="226" lane="99054938#0_0" pos="40" freq="120" file="map.out"/>
<inductionLoop id="227" lane="201576303#1_0" pos="103" freq="120" file="map.out"/>
<inductionLoop id="228" lane="224324801#2_0" pos="67" freq="120" file="map.out"/>
<inductionLoop id="229" lane="-224324833#2_0" pos="29" freq="120" file="map.out"/>
<inductionLoop id="230" lane="99810906#2_0" pos="17" freq="120" file="map.out"/>
<inductionLoop id="231" lane="99810906#2_1" pos="17" freq="120" file="map.out"/>
<inductionLoop id="232" lane="99810906#2_2" pos="17" freq="120" file="map.out"/>
<inductionLoop id="233" lane="272839919#0_0" pos="90" freq="120" file="map.out"/>
<inductionLoop id="234" lane="272839918_0" pos="50" freq="120" file="map.out"/>
<inductionLoop id="235" lane="222721802#8-AddedOffRampEdge_0" pos="95" freq="120" file="map.out"/>
<inductionLoop id="236" lane="222721802#8-AddedOffRampEdge_1" pos="95" freq="120" file="map.out"/>
<inductionLoop id="237" lane="222721802#8-AddedOffRampEdge_2" pos="95" freq="120" file="map.out"/>
<inductionLoop id="238" lane="-275434056#0_0" pos="19" freq="120" file="map.out"/>
<inductionLoop id="239" lane="-275434056#1_0" pos="30" freq="120" file="map.out"/>
<inductionLoop id="240" lane="87307151#0_0" pos="57" freq="120" file="map.out"/>
<inductionLoop id="241" lane="-201479196#0_0" pos="235" freq="120" file="map.out"/>
<inductionLoop id="242" lane="99880433#3_0" pos="211" freq="120" file="map.out"/>
<inductionLoop id="243" lane="25911284#1-AddedOnRampEdge_0" pos="57" freq="120" file="map.out"/>
<inductionLoop id="244" lane="25911284#1-AddedOnRampEdge_1" pos="57" freq="120" file="map.out"/>
<inductionLoop id="245" lane="25911284#1-AddedOnRampEdge_2" pos="57" freq="120" file="map.out"/>
<inductionLoop id="246" lane="25911284#1-AddedOnRampEdge_3" pos="57" freq="120" file="map.out"/>
<inductionLoop id="247" lane="-222637876#1_0" pos="65" freq="120" file="map.out"/>
<inductionLoop id="248" lane="155396597#6_0" pos="13" freq="120" file="map.out"/>
<inductionLoop id="249" lane="89382517#1_0" pos="47" freq="120" file="map.out"/>
<inductionLoop id="250" lane="89382517#1_1" pos="47" freq="120" file="map.out"/>
<inductionLoop id="251" lane="155396597#4_0" pos="203" freq="120" file="map.out"/>
<inductionLoop id="252" lane="224324807#2_0" pos="53" freq="120" file="map.out"/>
<inductionLoop id="253" lane="-194081084#1_0" pos="20" freq="120" file="map.out"/>
<inductionLoop id="254" lane="-224343325_0" pos="118" freq="120" file="map.out"/>
<inductionLoop id="255" lane="224324807#5_0" pos="20" freq="120" file="map.out"/>
<inductionLoop id="256" lane="224324806#1_0" pos="22" freq="120" file="map.out"/>
<inductionLoop id="257" lane="-213572652#1_0" pos="115" freq="120" file="map.out"/>
<inductionLoop id="258" lane="-213572652#0_0" pos="170" freq="120" file="map.out"/>
<inductionLoop id="259" lane="99349233#16-AddedOffRampEdge_0" pos="72" freq="120" file="map.out"/>
<inductionLoop id="260" lane="99349233#16-AddedOffRampEdge_1" pos="72" freq="120" file="map.out"/>
<inductionLoop id="261" lane="99349233#16-AddedOffRampEdge_2" pos="72" freq="120" file="map.out"/>
<inductionLoop id="262" lane="99349233#16-AddedOffRampEdge_3" pos="72" freq="120" file="map.out"/>
<inductionLoop id="263" lane="10610754_0" pos="217" freq="120" file="map.out"/>
<inductionLoop id="264" lane="180610768#0_0" pos="17" freq="120" file="map.out"/>
<inductionLoop id="265" lane="100132669#5-AddedOnRampEdge_0" pos="13" freq="120" file="map.out"/>
<inductionLoop id="266" lane="100132669#5-AddedOnRampEdge_1" pos="13" freq="120" file="map.out"/>
<inductionLoop id="267" lane="87307088#5_0" pos="34" freq="120" file="map.out"/>
<inductionLoop id="268" lane="-87307042_0" pos="117" freq="120" file="map.out"/>
<inductionLoop id="269" lane="222773451#2_0" pos="54" freq="120" file="map.out"/>
<inductionLoop id="270" lane="224320541#0_0" pos="12" freq="120" file="map.out"/>
<inductionLoop id="271" lane="87307190#0_0" pos="50" freq="120" file="map.out"/>
<inductionLoop id="272" lane="87307190#1_0" pos="83" freq="120" file="map.out"/>
<inductionLoop id="273" lane="201172559#1-AddedOnRampEdge_0" pos="48" freq="120" file="map.out"/>
<inductionLoop id="274" lane="201172559#1-AddedOnRampEdge_1" pos="48" freq="120" file="map.out"/>
<inductionLoop id="275" lane="201172559#1-AddedOnRampEdge_2" pos="48" freq="120" file="map.out"/>
<inductionLoop id="276" lane="201172559#1-AddedOnRampEdge_3" pos="48" freq="120" file="map.out"/>
<inductionLoop id="277" lane="289639261#7_0" pos="403" freq="120" file="map.out"/>
<inductionLoop id="278" lane="289639261#7_1" pos="403" freq="120" file="map.out"/>
<inductionLoop id="279" lane="289639261#7_2" pos="403" freq="120" file="map.out"/>
<inductionLoop id="280" lane="-24503790_0" pos="50" freq="120" file="map.out"/>
<inductionLoop id="281" lane="222636162#0_0" pos="74" freq="120" file="map.out"/>
<inductionLoop id="282" lane="228710167#0_0" pos="119" freq="120" file="map.out"/>
<inductionLoop id="283" lane="233936815#1_0" pos="164" freq="120" file="map.out"/>
<inductionLoop id="284" lane="233936815#1_1" pos="164" freq="120" file="map.out"/>
<inductionLoop id="285" lane="233936815#1_2" pos="164" freq="120" file="map.out"/>
<inductionLoop id="286" lane="-99045817#6_0" pos="83" freq="120" file="map.out"/>
<inductionLoop id="287" lane="10755724#1_0" pos="4180" freq="120" file="map.out"/>
<inductionLoop id="288" lane="10755724#1_1" pos="4180" freq="120" file="map.out"/>
<inductionLoop id="289" lane="10755724#1_2" pos="4180" freq="120" file="map.out"/>
<inductionLoop id="290" lane="-224343323#0_0" pos="27" freq="120" file="map.out"/>
<inductionLoop id="291" lane="224324839#0_0" pos="704" freq="120" file="map.out"/>
<inductionLoop id="292" lane="50220417#7_0" pos="99" freq="120" file="map.out"/>
<inductionLoop id="293" lane="50220417#7_1" pos="99" freq="120" file="map.out"/>
<inductionLoop id="294" lane="50220417#7_2" pos="99" freq="120" file="map.out"/>
<inductionLoop id="295" lane="-228714413#2_0" pos="70" freq="120" file="map.out"/>
<inductionLoop id="296" lane="-228714413#0_0" pos="71" freq="120" file="map.out"/>
<inductionLoop id="297" lane="176335388#5_0" pos="71" freq="120" file="map.out"/>
<inductionLoop id="298" lane="176335388#5_1" pos="71" freq="120" file="map.out"/>
<inductionLoop id="299" lane="222778210_0" pos="200" freq="120" file="map.out"/>
<inductionLoop id="300" lane="224371139#8_0" pos="122" freq="120" file="map.out"/>
<inductionLoop id="301" lane="222609122#0_0" pos="19" freq="120" file="map.out"/>
<inductionLoop id="302" lane="222725831#1_0" pos="59" freq="120" file="map.out"/>
<inductionLoop id="303" lane="-10711846_0" pos="27" freq="120" file="map.out"/>
<inductionLoop id="304" lane="289639260#5-AddedOnRampEdge_0" pos="20" freq="120" file="map.out"/>
<inductionLoop id="305" lane="289639260#5-AddedOnRampEdge_1" pos="20" freq="120" file="map.out"/>
<inductionLoop id="306" lane="289639260#5-AddedOnRampEdge_2" pos="20" freq="120" file="map.out"/>
<inductionLoop id="307" lane="228709350#0_0" pos="50" freq="120" file="map.out"/>
<inductionLoop id="308" lane="201500281#1_0" pos="223" freq="120" file="map.out"/>
<inductionLoop id="309" lane="201500281#3_0" pos="208" freq="120" file="map.out"/>
<inductionLoop id="310" lane="201500281#2_0" pos="60" freq="120" file="map.out"/>
<inductionLoop id="311" lane="-224324808#1_0" pos="83" freq="120" file="map.out"/>
<inductionLoop id="312" lane="201500281#4_0" pos="439" freq="120" file="map.out"/>
<inductionLoop id="313" lane="10755724#0-AddedOffRampEdge_0" pos="50" freq="120" file="map.out"/>
<inductionLoop id="314" lane="10755724#0-AddedOffRampEdge_1" pos="50" freq="120" file="map.out"/>
<inductionLoop id="315" lane="10755724#0-AddedOffRampEdge_2" pos="50" freq="120" file="map.out"/>
<inductionLoop id="316" lane="10755724#0-AddedOffRampEdge_3" pos="50" freq="120" file="map.out"/>
<inductionLoop id="317" lane="-222773435#1_0" pos="63" freq="120" file="map.out"/>
<inductionLoop id="318" lane="87307083_0" pos="231" freq="120" file="map.out"/>
<inductionLoop id="319" lane="99810209#1_0" pos="81" freq="120" file="map.out"/>
<inductionLoop id="320" lane="-224343317#6_0" pos="45" freq="120" file="map.out"/>
<inductionLoop id="321" lane="224320551#4-AddedOnRampEdge_0" pos="15" freq="120" file="map.out"/>
<inductionLoop id="322" lane="224320551#4-AddedOnRampEdge_1" pos="15" freq="120" file="map.out"/>
<inductionLoop id="323" lane="99810208#2_0" pos="19" freq="120" file="map.out"/>
<inductionLoop id="324" lane="273214160_0" pos="35" freq="120" file="map.out"/>
<inductionLoop id="325" lane="87307149#3_0" pos="96" freq="120" file="map.out"/>
<inductionLoop id="326" lane="-228710151#1_0" pos="46" freq="120" file="map.out"/>
<inductionLoop id="327" lane="149780414_0" pos="39" freq="120" file="map.out"/>
<inductionLoop id="328" lane="228713979#1_0" pos="28" freq="120" file="map.out"/>
<inductionLoop id="329" lane="-275465920#1_0" pos="59" freq="120" file="map.out"/>
<inductionLoop id="330" lane="224324833#4_0" pos="40" freq="120" file="map.out"/>
<inductionLoop id="331" lane="10478271#2-AddedOnRampEdge_0" pos="31" freq="120" file="map.out"/>
<inductionLoop id="332" lane="10478271#2-AddedOnRampEdge_1" pos="31" freq="120" file="map.out"/>
<inductionLoop id="333" lane="-222609139_0" pos="89" freq="120" file="map.out"/>
<inductionLoop id="334" lane="224324791#0_0" pos="18" freq="120" file="map.out"/>
<inductionLoop id="335" lane="87307130#8-AddedOffRampEdge_0" pos="31" freq="120" file="map.out"/>
<inductionLoop id="336" lane="87307130#8-AddedOffRampEdge_1" pos="31" freq="120" file="map.out"/>
<inductionLoop id="337" lane="233936815#11_0" pos="400" freq="120" file="map.out"/>
<inductionLoop id="338" lane="233936815#11_1" pos="400" freq="120" file="map.out"/>
<inductionLoop id="339" lane="233936815#11_2" pos="400" freq="120" file="map.out"/>
<inductionLoop id="340" lane="170224259#0_0" pos="1959" freq="120" file="map.out"/>
<inductionLoop id="341" lane="170224259#0_1" pos="1959" freq="120" file="map.out"/>
<inductionLoop id="342" lane="224334769#0-AddedOffRampEdge_0" pos="77" freq="120" file="map.out"/>
<inductionLoop id="343" lane="224334769#0-AddedOffRampEdge_1" pos="77" freq="120" file="map.out"/>
<inductionLoop id="344" lane="224334769#0-AddedOffRampEdge_2" pos="77" freq="120" file="map.out"/>
<inductionLoop id="345" lane="224334769#0-AddedOffRampEdge_3" pos="77" freq="120" file="map.out"/>
<inductionLoop id="346" lane="276686888#0_0" pos="53" freq="120" file="map.out"/>
<inductionLoop id="347" lane="224343263#9_0" pos="109" freq="120" file="map.out"/>
<inductionLoop id="348" lane="-199816367#0_0" pos="514" freq="120" file="map.out"/>
<inductionLoop id="349" lane="-199816367#0_1" pos="514" freq="120" file="map.out"/>
<inductionLoop id="350" lane="89382506#3_0" pos="128" freq="120" file="map.out"/>
<inductionLoop id="351" lane="89382506#3_1" pos="128" freq="120" file="map.out"/>