<?xml version="1.0"?>
<!-- generated on 2015-01-02 11:19:15.146997 by $Id: randomTrips.py 16365 2014-05-13 08:50:42Z namdre $ 
  options: -n map.net.xml -p 1 -b 0 -e 50 -l -o map.trips.xml
-->
<trips>
    <trip id="0" depart="0.00" from="24502467#4-AddedOffRampEdge" to="276687869" />
    <trip id="1" depart="1.00" from="-201500523#2" to="87307046" />
    <trip id="2" depart="2.00" from="10478329" to="224324841#1" />
    <trip id="3" depart="3.00" from="87307083" to="-201479198#1" />
    <trip id="4" depart="4.00" from="224343263#7" to="275463955#1" />
    <trip id="5" depart="5.00" from="10478960#1" to="10478605#1" />
    <trip id="6" depart="6.00" from="-149780417#5" to="86572097#1" />
    <trip id="7" depart="7.00" from="-201500333" to="222773418#0" />
    <trip id="8" depart="8.00" from="-228711962#2" to="-201479201#6" />
    <trip id="9" depart="9.00" from="-201479190#3" to="224337206#0" />
    <trip id="10" depart="10.00" from="8311003" to="-228709329#2" />
    <trip id="11" depart="11.00" from="222773393#2" to="222609137" />
    <trip id="12" depart="12.00" from="-99054940#1" to="-180610738" />
    <trip id="13" depart="13.00" from="4009554#1-AddedOffRampEdge" to="149780417#6" />
    <trip id="14" depart="14.00" from="155309518#0" to="-100700680#0" />
    <trip id="15" depart="15.00" from="201479198#0" to="24395305#0" />
    <trip id="16" depart="16.00" from="-167276212#2" to="201479194#3" />
    <trip id="17" depart="17.00" from="99885723#6" to="-228714011#0" />
    <trip id="18" depart="18.00" from="50338677#1" to="-180610764#0" />
    <trip id="19" depart="19.00" from="-222773419#4" to="-228714016#0" />
    <trip id="20" depart="20.00" from="174751305#1" to="24502467#3" />
    <trip id="21" depart="21.00" from="-201479192" to="-223639381#2" />
    <trip id="22" depart="22.00" from="-170224259#0" to="-228709894#0" />
    <trip id="23" depart="23.00" from="-87307149#1" to="155405928#8" />
    <trip id="24" depart="24.00" from="24395768#0" to="-228709879#0" />
    <trip id="25" depart="25.00" from="-201479199#1" to="-195150400#0" />
    <trip id="26" depart="26.00" from="222633886#2" to="99367780" />
    <trip id="27" depart="27.00" from="-201576297#0" to="224324839#1" />
    <trip id="28" depart="28.00" from="222603473#1" to="-224343204#0" />
    <trip id="29" depart="29.00" from="-199901662" to="201500280#9" />
    <trip id="30" depart="30.00" from="222773387#1" to="-275463912#3" />
    <trip id="31" depart="31.00" from="222637836#1" to="24271816" />
    <trip id="32" depart="32.00" from="-224324800#2" to="-99365082#1" />
    <trip id="33" depart="33.00" from="-201479252#5" to="50220417#1" />
    <trip id="34" depart="34.00" from="275468429#1" to="201479194#0" />
    <trip id="35" depart="35.00" from="25911282#10" to="10755724#1" />
    <trip id="36" depart="36.00" from="99880426#3" to="50165984" />
    <trip id="37" depart="37.00" from="-201500280#6" to="-223517439#0" />
    <trip id="38" depart="38.00" from="-224343304#1" to="-201479190#2" />
    <trip id="39" depart="39.00" from="156663255#0" to="228710188#1" />
    <trip id="40" depart="40.00" from="228710351#3" to="156663255#4" />
    <trip id="41" depart="41.00" from="-224330154" to="224320546#11" />
    <trip id="42" depart="42.00" from="222637854#2" to="-286783502" />
    <trip id="43" depart="43.00" from="50220417#1" to="-300269269" />
    <trip id="44" depart="44.00" from="24395540#2" to="300240676#0" />
    <trip id="45" depart="45.00" from="228714006#2" to="24185995" />
    <trip id="46" depart="46.00" from="233936815#5" to="24291568#1" />
    <trip id="47" depart="47.00" from="50220417#2-AddedOnRampEdge" to="-224344448#1" />
    <trip id="48" depart="48.00" from="99365082#1" to="89382515#1-AddedOnRampEdge" />
    <trip id="49" depart="49.00" from="87307166#10" to="199802939#0" />
</trips>