<additional>
<inductionLoop id="0" lane="-224324800#1_0" pos="15" freq="30" file="map.out"/>
<inductionLoop id="1" lane="213572549#1_0" pos="10" freq="30" file="map.out"/>
<inductionLoop id="2" lane="289639260#5-AddedOnRampEdge_1" pos="38" freq="30" file="map.out"/>
<inductionLoop id="3" lane="99884547#2_1" pos="105" freq="30" file="map.out"/>
<inductionLoop id="4" lane="224324844#11_0" pos="35" freq="30" file="map.out"/>
<inductionLoop id="5" lane="222773397#1_0" pos="23" freq="30" file="map.out"/>
<inductionLoop id="6" lane="224344434_0" pos="12" freq="30" file="map.out"/>
<inductionLoop id="7" lane="149780417#2_0" pos="71" freq="30" file="map.out"/>
<inductionLoop id="8" lane="-194081078#0_0" pos="13" freq="30" file="map.out"/>
<inductionLoop id="9" lane="223517481#1-AddedOnRampEdge_0" pos="20" freq="30" file="map.out"/>
<inductionLoop id="10" lane="-228714420#1_0" pos="65" freq="30" file="map.out"/>
<inductionLoop id="11" lane="156663255#4_4" pos="7401" freq="30" file="map.out"/>
<inductionLoop id="12" lane="99349234#0_0" pos="60" freq="30" file="map.out"/>
<inductionLoop id="13" lane="-149779629#2_0" pos="50" freq="30" file="map.out"/>
<inductionLoop id="14" lane="-228710342#0_0" pos="12" freq="30" file="map.out"/>
<inductionLoop id="15" lane="87307286_0" pos="188" freq="30" file="map.out"/>
<inductionLoop id="16" lane="10478929_0" pos="834" freq="30" file="map.out"/>
<inductionLoop id="17" lane="289639261#9_0" pos="898" freq="30" file="map.out"/>
<inductionLoop id="18" lane="275469107#0_0" pos="88" freq="30" file="map.out"/>
<inductionLoop id="19" lane="50220417#10_2" pos="30" freq="30" file="map.out"/>
<inductionLoop id="20" lane="223639374_0" pos="88" freq="30" file="map.out"/>
<inductionLoop id="21" lane="224334769#17-AddedOnRampEdge_2" pos="66" freq="30" file="map.out"/>
<inductionLoop id="22" lane="223643138#1_0" pos="38" freq="30" file="map.out"/>
<inductionLoop id="23" lane="99349234#1_0" pos="283" freq="30" file="map.out"/>
<inductionLoop id="24" lane="222111146#1_0" pos="101" freq="30" file="map.out"/>
<inductionLoop id="25" lane="99880407#0_2" pos="462" freq="30" file="map.out"/>
<inductionLoop id="26" lane="222636152#0_0" pos="33" freq="30" file="map.out"/>
<inductionLoop id="27" lane="199803977#1_1" pos="56" freq="30" file="map.out"/>
<inductionLoop id="28" lane="228714450#0_0" pos="21" freq="30" file="map.out"/>
<inductionLoop id="29" lane="99055429_0" pos="47" freq="30" file="map.out"/>
<inductionLoop id="30" lane="224344453_0" pos="66" freq="30" file="map.out"/>
<inductionLoop id="31" lane="224324773#12-AddedOnRampEdge_0" pos="65" freq="30" file="map.out"/>
<inductionLoop id="32" lane="223518164#1-AddedOffRampEdge_0" pos="74" freq="30" file="map.out"/>
<inductionLoop id="33" lane="-276687870#0_0" pos="35" freq="30" file="map.out"/>
<inductionLoop id="34" lane="-228709330#2_0" pos="71" freq="30" file="map.out"/>
<inductionLoop id="35" lane="-224343267#1_0" pos="335" freq="30" file="map.out"/>
<inductionLoop id="36" lane="24395750#2-AddedOnRampEdge_0" pos="27" freq="30" file="map.out"/>
<inductionLoop id="37" lane="199816842#0_1" pos="11" freq="30" file="map.out"/>
<inductionLoop id="38" lane="155406843#3_0" pos="20" freq="30" file="map.out"/>
<inductionLoop id="39" lane="-276679741#2_0" pos="69" freq="30" file="map.out"/>
<inductionLoop id="40" lane="221976994_1" pos="296" freq="30" file="map.out"/>
<inductionLoop id="41" lane="180241133#1_0" pos="48" freq="30" file="map.out"/>
<inductionLoop id="42" lane="99349234#0_3" pos="58" freq="30" file="map.out"/>
<inductionLoop id="43" lane="201500282#3_1" pos="13" freq="30" file="map.out"/>
<inductionLoop id="44" lane="275434057#1_0" pos="39" freq="30" file="map.out"/>
<inductionLoop id="45" lane="160488153#0_0" pos="42" freq="30" file="map.out"/>
<inductionLoop id="46" lane="-224343253_0" pos="30" freq="30" file="map.out"/>
<inductionLoop id="47" lane="24396747#4_0" pos="218" freq="30" file="map.out"/>
<inductionLoop id="48" lane="224344443#0_0" pos="12" freq="30" file="map.out"/>
<inductionLoop id="49" lane="223517353#3_0" pos="63" freq="30" file="map.out"/>
<inductionLoop id="50" lane="228710148#2_0" pos="44" freq="30" file="map.out"/>
<inductionLoop id="51" lane="99884562#1_1" pos="33" freq="30" file="map.out"/>
<inductionLoop id="52" lane="224334769#7-AddedOnRampEdge_0" pos="17" freq="30" file="map.out"/>
<inductionLoop id="53" lane="224320544#1_0" pos="54" freq="30" file="map.out"/>
<inductionLoop id="54" lane="24395540#0_1" pos="189" freq="30" file="map.out"/>
<inductionLoop id="55" lane="228713987#2_0" pos="84" freq="30" file="map.out"/>
<inductionLoop id="56" lane="224344448#0_0" pos="90" freq="30" file="map.out"/>
<inductionLoop id="57" lane="224324801#3-AddedOnRampEdge_0" pos="85" freq="30" file="map.out"/>
<inductionLoop id="58" lane="169238823#3_0" pos="86" freq="30" file="map.out"/>
<inductionLoop id="59" lane="99892511#6_1" pos="60" freq="30" file="map.out"/>
<inductionLoop id="60" lane="99810906#10_1" pos="40" freq="30" file="map.out"/>
<inductionLoop id="61" lane="223517364#1-AddedOnRampEdge_1" pos="71" freq="30" file="map.out"/>
<inductionLoop id="62" lane="222636165#6_0" pos="47" freq="30" file="map.out"/>
<inductionLoop id="63" lane="135706895_0" pos="241" freq="30" file="map.out"/>
<inductionLoop id="64" lane="224344455#2_0" pos="26" freq="30" file="map.out"/>
<inductionLoop id="65" lane="-200764200#7_0" pos="51" freq="30" file="map.out"/>
<inductionLoop id="66" lane="24494640#0_1" pos="302" freq="30" file="map.out"/>
<inductionLoop id="67" lane="99810906#4-AddedOnRampEdge_0" pos="64" freq="30" file="map.out"/>
<inductionLoop id="68" lane="276680450_0" pos="42" freq="30" file="map.out"/>
<inductionLoop id="69" lane="99886905#6_1" pos="29" freq="30" file="map.out"/>
<inductionLoop id="70" lane="10478271#2-AddedOnRampEdge_0" pos="85" freq="30" file="map.out"/>
<inductionLoop id="71" lane="-97646200#0_0" pos="23" freq="30" file="map.out"/>
<inductionLoop id="72" lane="50338694#8-AddedOnRampEdge_1" pos="48" freq="30" file="map.out"/>
<inductionLoop id="73" lane="-155396598#1_0" pos="94" freq="30" file="map.out"/>
<inductionLoop id="74" lane="223639444#0_0" pos="34" freq="30" file="map.out"/>
<inductionLoop id="75" lane="174751309#0_0" pos="104" freq="30" file="map.out"/>
<inductionLoop id="76" lane="201172767_0" pos="21" freq="30" file="map.out"/>
<inductionLoop id="77" lane="10611122#1-AddedOffRampEdge_1" pos="57" freq="30" file="map.out"/>
<inductionLoop id="78" lane="24550173#0-AddedOnRampEdge_3" pos="63" freq="30" file="map.out"/>
<inductionLoop id="79" lane="224343295#1_0" pos="19" freq="30" file="map.out"/>
<inductionLoop id="80" lane="224320546#10-AddedOffRampEdge_1" pos="23" freq="30" file="map.out"/>
<inductionLoop id="81" lane="25911284#1_1" pos="1933" freq="30" file="map.out"/>
<inductionLoop id="82" lane="167276187#0_2" pos="2942" freq="30" file="map.out"/>
<inductionLoop id="83" lane="25911283#1_0" pos="338" freq="30" file="map.out"/>
<inductionLoop id="84" lane="213572621#1_0" pos="73" freq="30" file="map.out"/>
<inductionLoop id="85" lane="201170910#6_1" pos="10" freq="30" file="map.out"/>
<inductionLoop id="86" lane="224344471#13_0" pos="113" freq="30" file="map.out"/>
<inductionLoop id="87" lane="-224371151#1_0" pos="518" freq="30" file="map.out"/>
<inductionLoop id="88" lane="200764221#1_0" pos="77" freq="30" file="map.out"/>
<inductionLoop id="89" lane="233936815#5-AddedOnRampEdge_0" pos="82" freq="30" file="map.out"/>
<inductionLoop id="90" lane="-224279940#1_0" pos="50" freq="30" file="map.out"/>
<inductionLoop id="91" lane="168744038#2_0" pos="80" freq="30" file="map.out"/>
<inductionLoop id="92" lane="224343317#4_0" pos="86" freq="30" file="map.out"/>
<inductionLoop id="93" lane="10712749_2" pos="324" freq="30" file="map.out"/>
<inductionLoop id="94" lane="-194081081#0_0" pos="44" freq="30" file="map.out"/>
<inductionLoop id="95" lane="228714014_0" pos="45" freq="30" file="map.out"/>
<inductionLoop id="96" lane="199816841#0_1" pos="42" freq="30" file="map.out"/>
<inductionLoop id="97" lane="-276687864#0_0" pos="43" freq="30" file="map.out"/>
<inductionLoop id="98" lane="224343282_0" pos="52" freq="30" file="map.out"/>
<inductionLoop id="99" lane="222721796_0" pos="47" freq="30" file="map.out"/>
<inductionLoop id="100" lane="-99365162#3_0" pos="23" freq="30" file="map.out"/>
<inductionLoop id="101" lane="99886909_0" pos="101" freq="30" file="map.out"/>
<inductionLoop id="102" lane="87307009#1_0" pos="50" freq="30" file="map.out"/>
<inductionLoop id="103" lane="224330152-AddedOffRampEdge_0" pos="88" freq="30" file="map.out"/>
<inductionLoop id="104" lane="228714431#1_0" pos="19" freq="30" file="map.out"/>
<inductionLoop id="105" lane="78982771#11-AddedOnRampEdge_1" pos="13" freq="30" file="map.out"/>
<inductionLoop id="106" lane="96032133#2_0" pos="37" freq="30" file="map.out"/>
<inductionLoop id="107" lane="24036881#2_0" pos="14" freq="30" file="map.out"/>
<inductionLoop id="108" lane="228714013_0" pos="172" freq="30" file="map.out"/>
<inductionLoop id="109" lane="-228714417#0_0" pos="57" freq="30" file="map.out"/>
<inductionLoop id="110" lane="99810906#9-AddedOnRampEdge_1" pos="15" freq="30" file="map.out"/>
<inductionLoop id="111" lane="155406847#0-AddedOnRampEdge_1" pos="94" freq="30" file="map.out"/>
<inductionLoop id="112" lane="99885755_0" pos="535" freq="30" file="map.out"/>
<inductionLoop id="113" lane="228714431#0_0" pos="24" freq="30" file="map.out"/>
<inductionLoop id="114" lane="222041362#2_0" pos="69" freq="30" file="map.out"/>
<inductionLoop id="115" lane="86572097#0_2" pos="5601" freq="30" file="map.out"/>
<inductionLoop id="116" lane="-99810832#0_0" pos="56" freq="30" file="map.out"/>
<inductionLoop id="117" lane="87293189_0" pos="216" freq="30" file="map.out"/>
<inductionLoop id="118" lane="224324863#0_0" pos="49" freq="30" file="map.out"/>
<inductionLoop id="119" lane="222636151#1_0" pos="16" freq="30" file="map.out"/>
<inductionLoop id="120" lane="-275434046#1_0" pos="148" freq="30" file="map.out"/>
<inductionLoop id="121" lane="99885697_1" pos="71" freq="30" file="map.out"/>
<inductionLoop id="122" lane="-228711964#1_0" pos="15" freq="30" file="map.out"/>
<inductionLoop id="123" lane="-223519658#0_0" pos="115" freq="30" file="map.out"/>
<inductionLoop id="124" lane="222636165#6_1" pos="42" freq="30" file="map.out"/>
<inductionLoop id="125" lane="275465491#1_0" pos="10" freq="30" file="map.out"/>
<inductionLoop id="126" lane="-99583670#1_0" pos="193" freq="30" file="map.out"/>
<inductionLoop id="127" lane="224324863#1_0" pos="95" freq="30" file="map.out"/>
<inductionLoop id="128" lane="50220417#2_1" pos="69" freq="30" file="map.out"/>
<inductionLoop id="129" lane="24395300#0_1" pos="217" freq="30" file="map.out"/>
<inductionLoop id="130" lane="10755724#0_1" pos="21631" freq="30" file="map.out"/>
<inductionLoop id="131" lane="-224371161#1_0" pos="59" freq="30" file="map.out"/>
<inductionLoop id="132" lane="-228709890#0_0" pos="118" freq="30" file="map.out"/>
<inductionLoop id="133" lane="223517397#2-AddedOffRampEdge_1" pos="41" freq="30" file="map.out"/>
<inductionLoop id="134" lane="-87307210#1_0" pos="89" freq="30" file="map.out"/>
<inductionLoop id="135" lane="222773437#0_1" pos="59" freq="30" file="map.out"/>
<inductionLoop id="136" lane="228711956#1_0" pos="41" freq="30" file="map.out"/>
<inductionLoop id="137" lane="-87307027#0_0" pos="22" freq="30" file="map.out"/>
<inductionLoop id="138" lane="224324803_0" pos="186" freq="30" file="map.out"/>
<inductionLoop id="139" lane=":cluster_2330988500_2330988512_2330988536_2330988544_9_0" pos="25" freq="30" file="map.out"/>
<inductionLoop id="140" lane="223517364#1-AddedOffRampEdge_0" pos="103" freq="30" file="map.out"/>
<inductionLoop id="141" lane="98836465#11_0" pos="57" freq="30" file="map.out"/>
<inductionLoop id="142" lane="50166174_0" pos="108" freq="30" file="map.out"/>
<inductionLoop id="143" lane="10711040#4-AddedOffRampEdge_0" pos="70" freq="30" file="map.out"/>
<inductionLoop id="144" lane="223518164#5_0" pos="124" freq="30" file="map.out"/>
<inductionLoop id="145" lane="99350867#0-AddedOffRampEdge_0" pos="78" freq="30" file="map.out"/>
<inductionLoop id="146" lane="99880426#6-AddedOnRampEdge_3" pos="63" freq="30" file="map.out"/>
<inductionLoop id="147" lane="50165541#0_0" pos="57" freq="30" file="map.out"/>
<inductionLoop id="148" lane="224324774#3_0" pos="70" freq="30" file="map.out"/>
<inductionLoop id="149" lane="99365126#2_0" pos="72" freq="30" file="map.out"/>
<inductionLoop id="150" lane="50220417#0-AddedOffRampEdge_1" pos="56" freq="30" file="map.out"/>
<inductionLoop id="151" lane="99349233#7_0" pos="57" freq="30" file="map.out"/>
<inductionLoop id="152" lane="-272839913_0" pos="14" freq="30" file="map.out"/>
<inductionLoop id="153" lane="-201500281#4_0" pos="157" freq="30" file="map.out"/>
<inductionLoop id="154" lane="155396995#0_0" pos="136" freq="30" file="map.out"/>
<inductionLoop id="155" lane="228714436#1_0" pos="45" freq="30" file="map.out"/>
<inductionLoop id="156" lane="-224371139#1_0" pos="42" freq="30" file="map.out"/>
<inductionLoop id="157" lane="233936815#7-AddedOnRampEdge_1" pos="48" freq="30" file="map.out"/>
<inductionLoop id="158" lane="228710349#0_0" pos="52" freq="30" file="map.out"/>
<inductionLoop id="159" lane="224334737_0" pos="80" freq="30" file="map.out"/>
<inductionLoop id="160" lane="-180610778#1_0" pos="35" freq="30" file="map.out"/>
<inductionLoop id="161" lane="99054392#0-AddedOffRampEdge_1" pos="65" freq="30" file="map.out"/>
<inductionLoop id="162" lane="155405928#1_0" pos="20" freq="30" file="map.out"/>
<inductionLoop id="163" lane="155403495#12-AddedOffRampEdge_2" pos="75" freq="30" file="map.out"/>
<inductionLoop id="164" lane="10478271#4-AddedOnRampEdge_0" pos="10" freq="30" file="map.out"/>
<inductionLoop id="165" lane="50220417#2-AddedOffRampEdge_3" pos="36" freq="30" file="map.out"/>
<inductionLoop id="166" lane="87307205#2-AddedOnRampEdge_3" pos="34" freq="30" file="map.out"/>
<inductionLoop id="167" lane="223517419#3_0" pos="20" freq="30" file="map.out"/>
<inductionLoop id="168" lane="-224324873#0_0" pos="39" freq="30" file="map.out"/>
<inductionLoop id="169" lane="201170906#1-AddedOffRampEdge_1" pos="91" freq="30" file="map.out"/>
<inductionLoop id="170" lane="50338692#1-AddedOnRampEdge_1" pos="57" freq="30" file="map.out"/>
<inductionLoop id="171" lane="222773398#0_0" pos="201" freq="30" file="map.out"/>
<inductionLoop id="172" lane="87307269#3_0" pos="70" freq="30" file="map.out"/>
<inductionLoop id="173" lane="224324807#0_0" pos="46" freq="30" file="map.out"/>
<inductionLoop id="174" lane="-201500332#1_0" pos="288" freq="30" file="map.out"/>
<inductionLoop id="175" lane="222773398#2+222773417_2" pos="21" freq="30" file="map.out"/>
<inductionLoop id="176" lane="99880433#1-AddedOffRampEdge_1" pos="74" freq="30" file="map.out"/>
<inductionLoop id="177" lane="228709329#4_0" pos="33" freq="30" file="map.out"/>
<inductionLoop id="178" lane="223639402_0" pos="21" freq="30" file="map.out"/>
<inductionLoop id="179" lane="233936815#7-AddedOnRampEdge_0" pos="38" freq="30" file="map.out"/>
<inductionLoop id="180" lane="24455440#3_0" pos="61" freq="30" file="map.out"/>
<inductionLoop id="181" lane="-293871162_0" pos="32" freq="30" file="map.out"/>
<inductionLoop id="182" lane="86572097#2_5" pos="286" freq="30" file="map.out"/>
<inductionLoop id="183" lane="200764222#1_0" pos="30" freq="30" file="map.out"/>
<inductionLoop id="184" lane="-100700680#5_0" pos="61" freq="30" file="map.out"/>
<inductionLoop id="185" lane="-199894477#1_1" pos="46" freq="30" file="map.out"/>
<inductionLoop id="186" lane="224334769#0_1" pos="457" freq="30" file="map.out"/>
<inductionLoop id="187" lane="96032125#0_0" pos="66" freq="30" file="map.out"/>
<inductionLoop id="188" lane="-275466499#2_0" pos="12" freq="30" file="map.out"/>
<inductionLoop id="189" lane="289639261#10-AddedOnRampEdge_0" pos="79" freq="30" file="map.out"/>
<inductionLoop id="190" lane="224324777#7-AddedOffRampEdge_1" pos="42" freq="30" file="map.out"/>
<inductionLoop id="191" lane="89418705_0" pos="131" freq="30" file="map.out"/>
<inductionLoop id="192" lane="10611122#1-AddedOnRampEdge_1" pos="51" freq="30" file="map.out"/>
<inductionLoop id="193" lane="-99055420#4_0" pos="16" freq="30" file="map.out"/>
<inductionLoop id="194" lane="99349233#10_1" pos="76" freq="30" file="map.out"/>
<inductionLoop id="195" lane="87307259#2_0" pos="51" freq="30" file="map.out"/>
<inductionLoop id="196" lane="224324808#2_0" pos="90" freq="30" file="map.out"/>
</additional>
