<additional>
<inductionLoop id="0" lane="96823253_0" pos="67" freq="120" file="/home/sami/Programming/senior/Senior-Design/tollgate/output/tollgate.xml"/>
<inductionLoop id="1" lane="-96823248_0" pos="99" freq="120" file="/home/sami/Programming/senior/Senior-Design/tollgate/output/tollgate.xml"/>
</additional>
