<additional>
<inductionLoop id="0" lane="-99810830#2_0" pos="47" freq="30" file="map.out"/>
<inductionLoop id="1" lane="87307296#1_0" pos="14" freq="30" file="map.out"/>
<inductionLoop id="2" lane="100700635#3_0" pos="19" freq="30" file="map.out"/>
<inductionLoop id="3" lane="99365082#1_0" pos="605" freq="30" file="map.out"/>
<inductionLoop id="4" lane="160488138#5_0" pos="28" freq="30" file="map.out"/>
<inductionLoop id="5" lane="-201172766_1" pos="717" freq="30" file="map.out"/>
<inductionLoop id="6" lane="224324839#1-AddedOnRampEdge_1" pos="34" freq="30" file="map.out"/>
<inductionLoop id="7" lane="224324862#1_0" pos="104" freq="30" file="map.out"/>
<inductionLoop id="8" lane="89382499#2_3" pos="21" freq="30" file="map.out"/>
<inductionLoop id="9" lane="222773434#0_0" pos="11" freq="30" file="map.out"/>
<inductionLoop id="10" lane="224320550#0_0" pos="18" freq="30" file="map.out"/>
<inductionLoop id="11" lane="-24503784#0_0" pos="33" freq="30" file="map.out"/>
<inductionLoop id="12" lane="-100242797_0" pos="18" freq="30" file="map.out"/>
<inductionLoop id="13" lane="224277997#0_0" pos="36" freq="30" file="map.out"/>
<inductionLoop id="14" lane="-213572597#3_0" pos="49" freq="30" file="map.out"/>
<inductionLoop id="15" lane="201170903_0" pos="73" freq="30" file="map.out"/>
<inductionLoop id="16" lane="199803978#1-AddedOnRampEdge_2" pos="62" freq="30" file="map.out"/>
<inductionLoop id="17" lane="228710187#2_0" pos="31" freq="30" file="map.out"/>
<inductionLoop id="18" lane="100700617#3_0" pos="10" freq="30" file="map.out"/>
<inductionLoop id="19" lane="180610676#1_0" pos="57" freq="30" file="map.out"/>
<inductionLoop id="20" lane="-180610660#0_0" pos="153" freq="30" file="map.out"/>
<inductionLoop id="21" lane="155403495#12-AddedOffRampEdge_0" pos="90" freq="30" file="map.out"/>
<inductionLoop id="22" lane="24396097#4_0" pos="60" freq="30" file="map.out"/>
<inductionLoop id="23" lane="100132659#1_0" pos="19" freq="30" file="map.out"/>
<inductionLoop id="24" lane="222723826#1+222723829#1_1" pos="65" freq="30" file="map.out"/>
<inductionLoop id="25" lane="224343318#0_0" pos="54" freq="30" file="map.out"/>
<inductionLoop id="26" lane="201479195#4_0" pos="73" freq="30" file="map.out"/>
<inductionLoop id="27" lane="-272839928#3_0" pos="19" freq="30" file="map.out"/>
<inductionLoop id="28" lane="87307027#4_0" pos="69" freq="30" file="map.out"/>
<inductionLoop id="29" lane="224324783#4_0" pos="29" freq="30" file="map.out"/>
<inductionLoop id="30" lane=":cluster_2373742507_2373744174_2_0" pos="24" freq="30" file="map.out"/>
<inductionLoop id="31" lane="228714009_0" pos="45" freq="30" file="map.out"/>
<inductionLoop id="32" lane="87307050_0" pos="18" freq="30" file="map.out"/>
<inductionLoop id="33" lane="89382499#0_0" pos="519" freq="30" file="map.out"/>
<inductionLoop id="34" lane="221976979#8_0" pos="25" freq="30" file="map.out"/>
<inductionLoop id="35" lane="224324777#5-AddedOffRampEdge_1" pos="62" freq="30" file="map.out"/>
<inductionLoop id="36" lane="89382520#0_1" pos="606" freq="30" file="map.out"/>
<inductionLoop id="37" lane="99045822#7_0" pos="16" freq="30" file="map.out"/>
<inductionLoop id="38" lane="-223519710_0" pos="72" freq="30" file="map.out"/>
<inductionLoop id="39" lane="224343310_0" pos="21" freq="30" file="map.out"/>
<inductionLoop id="40" lane="-275467694#2_0" pos="27" freq="30" file="map.out"/>
<inductionLoop id="41" lane="-224371138#1_0" pos="27" freq="30" file="map.out"/>
<inductionLoop id="42" lane="-201502181_0" pos="1578" freq="30" file="map.out"/>
<inductionLoop id="43" lane="98836465#10_0" pos="13" freq="30" file="map.out"/>
<inductionLoop id="44" lane="228711973#0_0" pos="28" freq="30" file="map.out"/>
<inductionLoop id="45" lane="-222773413#3_0" pos="133" freq="30" file="map.out"/>
<inductionLoop id="46" lane="200764164#3_0" pos="120" freq="30" file="map.out"/>
<inductionLoop id="47" lane="100571313_0" pos="12" freq="30" file="map.out"/>
<inductionLoop id="48" lane="223518163#1_0" pos="42" freq="30" file="map.out"/>
<inductionLoop id="49" lane="-24186156#0_0" pos="38" freq="30" file="map.out"/>
<inductionLoop id="50" lane="135704709_0" pos="10" freq="30" file="map.out"/>
<inductionLoop id="51" lane="223643123#1_0" pos="66" freq="30" file="map.out"/>
<inductionLoop id="52" lane="10478098#3_0" pos="48" freq="30" file="map.out"/>
<inductionLoop id="53" lane="201170905#1-AddedOffRampEdge_1" pos="64" freq="30" file="map.out"/>
<inductionLoop id="54" lane="223518165#1_1" pos="29" freq="30" file="map.out"/>
<inductionLoop id="55" lane="88376147#2-AddedOnRampEdge_0" pos="46" freq="30" file="map.out"/>
<inductionLoop id="56" lane="-223517333#3_0" pos="37" freq="30" file="map.out"/>
<inductionLoop id="57" lane="289639261#8-AddedOnRampEdge_2" pos="43" freq="30" file="map.out"/>
<inductionLoop id="58" lane="169238823#3_0" pos="10" freq="30" file="map.out"/>
<inductionLoop id="59" lane="224324804_0" pos="58" freq="30" file="map.out"/>
<inductionLoop id="60" lane="160488135_0" pos="83" freq="30" file="map.out"/>
<inductionLoop id="61" lane="224343277#0_0" pos="121" freq="30" file="map.out"/>
<inductionLoop id="62" lane="228709885#2_0" pos="24" freq="30" file="map.out"/>
<inductionLoop id="63" lane="-224343204#3_0" pos="83" freq="30" file="map.out"/>
<inductionLoop id="64" lane="224320540#1-AddedOnRampEdge_0" pos="10" freq="30" file="map.out"/>
<inductionLoop id="65" lane="-222632224#1_0" pos="92" freq="30" file="map.out"/>
<inductionLoop id="66" lane="-87307009#3_0" pos="74" freq="30" file="map.out"/>
<inductionLoop id="67" lane="289639261#0_1" pos="55" freq="30" file="map.out"/>
<inductionLoop id="68" lane="-155396597#3_0" pos="73" freq="30" file="map.out"/>
<inductionLoop id="69" lane="155405093_0" pos="54" freq="30" file="map.out"/>
<inductionLoop id="70" lane="228711966_0" pos="14" freq="30" file="map.out"/>
<inductionLoop id="71" lane="222636175#0_0" pos="41" freq="30" file="map.out"/>
<inductionLoop id="72" lane="222841292#0-AddedOnRampEdge_1" pos="97" freq="30" file="map.out"/>
<inductionLoop id="73" lane="-99037889#0_0" pos="44" freq="30" file="map.out"/>
<inductionLoop id="74" lane="-24291487#8_0" pos="155" freq="30" file="map.out"/>
<inductionLoop id="75" lane="87307173#5_0" pos="24" freq="30" file="map.out"/>
<inductionLoop id="76" lane="-99054805#0_0" pos="29" freq="30" file="map.out"/>
<inductionLoop id="77" lane=":cluster_1799623234_1799623500_1799623641_1799623672_6_0" pos="14" freq="30" file="map.out"/>
<inductionLoop id="78" lane="222637863#2_0" pos="21" freq="30" file="map.out"/>
<inductionLoop id="79" lane="-24186156#2_0" pos="89" freq="30" file="map.out"/>
<inductionLoop id="80" lane="-223639390#6_0" pos="186" freq="30" file="map.out"/>
<inductionLoop id="81" lane="99884540#0_0" pos="161" freq="30" file="map.out"/>
<inductionLoop id="82" lane="78982771#15_0" pos="54" freq="30" file="map.out"/>
<inductionLoop id="83" lane="-228710152#0_0" pos="25" freq="30" file="map.out"/>
<inductionLoop id="84" lane="222609141_0" pos="34" freq="30" file="map.out"/>
<inductionLoop id="85" lane="228710171#1_0" pos="13" freq="30" file="map.out"/>
<inductionLoop id="86" lane="99885779#3_0" pos="176" freq="30" file="map.out"/>
<inductionLoop id="87" lane=":cluster_1145703628_1158694004_14_0" pos="11" freq="30" file="map.out"/>
<inductionLoop id="88" lane=":cluster_1145703628_1158694004_16_0" pos="20" freq="30" file="map.out"/>
<inductionLoop id="89" lane="224371166_0" pos="10" freq="30" file="map.out"/>
<inductionLoop id="90" lane="-275434057#2_0" pos="55" freq="30" file="map.out"/>
<inductionLoop id="91" lane="228710349#2_0" pos="27" freq="30" file="map.out"/>
<inductionLoop id="92" lane="213572585_0" pos="94" freq="30" file="map.out"/>
<inductionLoop id="93" lane="-99045801#5_0" pos="12" freq="30" file="map.out"/>
<inductionLoop id="94" lane="222603478#11_1" pos="406" freq="30" file="map.out"/>
<inductionLoop id="95" lane="224334704#3_0" pos="66" freq="30" file="map.out"/>
<inductionLoop id="96" lane="10713000#2_0" pos="28" freq="30" file="map.out"/>
<inductionLoop id="97" lane="99045820#4_0" pos="24" freq="30" file="map.out"/>
<inductionLoop id="98" lane="99884558_1" pos="183" freq="30" file="map.out"/>
<inductionLoop id="99" lane="-223639444#2_0" pos="102" freq="30" file="map.out"/>
<inductionLoop id="100" lane="224324778#1_0" pos="29" freq="30" file="map.out"/>
<inductionLoop id="101" lane="10610744#2-AddedOnRampEdge_0" pos="94" freq="30" file="map.out"/>
<inductionLoop id="102" lane="155406844#3_0" pos="19" freq="30" file="map.out"/>
<inductionLoop id="103" lane="50338677#2-AddedOnRampEdge_0" pos="92" freq="30" file="map.out"/>
<inductionLoop id="104" lane="98836475#0_0" pos="32" freq="30" file="map.out"/>
<inductionLoop id="105" lane="-87307238#3_0" pos="62" freq="30" file="map.out"/>
<inductionLoop id="106" lane="155396995#1_0" pos="75" freq="30" file="map.out"/>
<inductionLoop id="107" lane="-87306990#1_0" pos="51" freq="30" file="map.out"/>
<inductionLoop id="108" lane=":2829250375_1_0" pos="18" freq="30" file="map.out"/>
<inductionLoop id="109" lane="99885766#3_1" pos="18" freq="30" file="map.out"/>
<inductionLoop id="110" lane="-24396073#1_0" pos="193" freq="30" file="map.out"/>
<inductionLoop id="111" lane="24503784#1_0" pos="24" freq="30" file="map.out"/>
<inductionLoop id="112" lane="99884543#0_0" pos="223" freq="30" file="map.out"/>
<inductionLoop id="113" lane="-224371161#0_0" pos="32" freq="30" file="map.out"/>
<inductionLoop id="114" lane="149779629#1_0" pos="228" freq="30" file="map.out"/>
<inductionLoop id="115" lane="222636187#1_0" pos="30" freq="30" file="map.out"/>
<inductionLoop id="116" lane="224343256_0" pos="23" freq="30" file="map.out"/>
<inductionLoop id="117" lane="-228714008#3_0" pos="64" freq="30" file="map.out"/>
<inductionLoop id="118" lane="87306978_0" pos="44" freq="30" file="map.out"/>
<inductionLoop id="119" lane="223639476#0_0" pos="50" freq="30" file="map.out"/>
<inductionLoop id="120" lane="224324831#4_0" pos="43" freq="30" file="map.out"/>
<inductionLoop id="121" lane="-24455440#0_1" pos="189" freq="30" file="map.out"/>
<inductionLoop id="122" lane="201173355#0_0" pos="444" freq="30" file="map.out"/>
<inductionLoop id="123" lane="24395666#1_1" pos="11" freq="30" file="map.out"/>
<inductionLoop id="124" lane="224324856#2_0" pos="162" freq="30" file="map.out"/>
<inductionLoop id="125" lane="224334769#16-AddedOnRampEdge_0" pos="60" freq="30" file="map.out"/>
<inductionLoop id="126" lane="95984152#6-AddedOnRampEdge_3" pos="54" freq="30" file="map.out"/>
<inductionLoop id="127" lane="223639431#2_1" pos="10" freq="30" file="map.out"/>
<inductionLoop id="128" lane="224277991#2_0" pos="19" freq="30" file="map.out"/>
<inductionLoop id="129" lane="78982771#2_0" pos="61" freq="30" file="map.out"/>
<inductionLoop id="130" lane="89418703_0" pos="141" freq="30" file="map.out"/>
<inductionLoop id="131" lane="-275466499#1_0" pos="38" freq="30" file="map.out"/>
<inductionLoop id="132" lane="224324851#1_0" pos="82" freq="30" file="map.out"/>
<inductionLoop id="133" lane="-224344450#6_0" pos="55" freq="30" file="map.out"/>
<inductionLoop id="134" lane="-200764200#9_0" pos="70" freq="30" file="map.out"/>
<inductionLoop id="135" lane="224334769#0-AddedOffRampEdge_3" pos="73" freq="30" file="map.out"/>
<inductionLoop id="136" lane="155403497#0_2" pos="14" freq="30" file="map.out"/>
<inductionLoop id="137" lane="24469665#0_1" pos="123" freq="30" file="map.out"/>
<inductionLoop id="138" lane="222773415#0_0" pos="120" freq="30" file="map.out"/>
<inductionLoop id="139" lane="-273214843#1_0" pos="21" freq="30" file="map.out"/>
<inductionLoop id="140" lane="272840554_0" pos="28" freq="30" file="map.out"/>
<inductionLoop id="141" lane="-99037894#0_0" pos="23" freq="30" file="map.out"/>
<inductionLoop id="142" lane="199816843#1-AddedOnRampEdge_3" pos="31" freq="30" file="map.out"/>
<inductionLoop id="143" lane="278572101#1_0" pos="10" freq="30" file="map.out"/>
<inductionLoop id="144" lane="99810857#4_0" pos="16" freq="30" file="map.out"/>
<inductionLoop id="145" lane="-228714421#4_0" pos="38" freq="30" file="map.out"/>
<inductionLoop id="146" lane=":1677086874_1_0" pos="13" freq="30" file="map.out"/>
<inductionLoop id="147" lane="149779425_0" pos="20" freq="30" file="map.out"/>
<inductionLoop id="148" lane="25911279#6_2" pos="36" freq="30" file="map.out"/>
<inductionLoop id="149" lane="155309525#6_0" pos="177" freq="30" file="map.out"/>
<inductionLoop id="150" lane="155309881#0_0" pos="248" freq="30" file="map.out"/>
<inductionLoop id="151" lane="-228709329#0_0" pos="19" freq="30" file="map.out"/>
<inductionLoop id="152" lane="39297528#5_1" pos="164" freq="30" file="map.out"/>
<inductionLoop id="153" lane="222111135#2+222111163#0_0" pos="62" freq="30" file="map.out"/>
<inductionLoop id="154" lane="222111162#6_0" pos="17" freq="30" file="map.out"/>
<inductionLoop id="155" lane="-87307143_0" pos="18" freq="30" file="map.out"/>
<inductionLoop id="156" lane="176335388#3_1" pos="24" freq="30" file="map.out"/>
<inductionLoop id="157" lane="98882846#1_0" pos="23" freq="30" file="map.out"/>
<inductionLoop id="158" lane="87307197#2_0" pos="113" freq="30" file="map.out"/>
<inductionLoop id="159" lane="228709874#0_0" pos="29" freq="30" file="map.out"/>
<inductionLoop id="160" lane=":2331633807_8_0" pos="23" freq="30" file="map.out"/>
<inductionLoop id="161" lane="155403497#3_1" pos="91" freq="30" file="map.out"/>
<inductionLoop id="162" lane="-275466557#0_0" pos="19" freq="30" file="map.out"/>
<inductionLoop id="163" lane="-24455440#0_0" pos="79" freq="30" file="map.out"/>
<inductionLoop id="164" lane="-100240909#7_0" pos="18" freq="30" file="map.out"/>
<inductionLoop id="165" lane="-228710147#0_0" pos="124" freq="30" file="map.out"/>
<inductionLoop id="166" lane="222637860#0_0" pos="38" freq="30" file="map.out"/>
<inductionLoop id="167" lane="-201576305#1_0" pos="20" freq="30" file="map.out"/>
<inductionLoop id="168" lane="174751309#0_1" pos="162" freq="30" file="map.out"/>
<inductionLoop id="169" lane="-223639381#5_0" pos="72" freq="30" file="map.out"/>
<inductionLoop id="170" lane="99045844#0_0" pos="20" freq="30" file="map.out"/>
<inductionLoop id="171" lane="-276688872#1_0" pos="14" freq="30" file="map.out"/>
<inductionLoop id="172" lane="10610742#0-AddedOffRampEdge_0" pos="58" freq="30" file="map.out"/>
<inductionLoop id="173" lane="228710150#2_0" pos="28" freq="30" file="map.out"/>
<inductionLoop id="174" lane="89382511#2_0" pos="28" freq="30" file="map.out"/>
<inductionLoop id="175" lane="-228711976#2_0" pos="59" freq="30" file="map.out"/>
<inductionLoop id="176" lane="50338692#0_0" pos="195" freq="30" file="map.out"/>
<inductionLoop id="177" lane="224337209#0_0" pos="186" freq="30" file="map.out"/>
<inductionLoop id="178" lane="273214377#2_0" pos="62" freq="30" file="map.out"/>
<inductionLoop id="179" lane="-228710346#2_0" pos="13" freq="30" file="map.out"/>
<inductionLoop id="180" lane="-224371149#6_0" pos="29" freq="30" file="map.out"/>
<inductionLoop id="181" lane="228710350#0_0" pos="38" freq="30" file="map.out"/>
<inductionLoop id="182" lane="99880426#5_0" pos="1095" freq="30" file="map.out"/>
<inductionLoop id="183" lane="-223639374_0" pos="44" freq="30" file="map.out"/>
<inductionLoop id="184" lane="-99053935#0_0" pos="23" freq="30" file="map.out"/>
<inductionLoop id="185" lane="24287283#3_0" pos="335" freq="30" file="map.out"/>
<inductionLoop id="186" lane="222773437#0_1" pos="88" freq="30" file="map.out"/>
<inductionLoop id="187" lane="-155396598#1_0" pos="122" freq="30" file="map.out"/>
<inductionLoop id="188" lane="24036881#1_0" pos="38" freq="30" file="map.out"/>
<inductionLoop id="189" lane="275465535#0_0" pos="73" freq="30" file="map.out"/>
<inductionLoop id="190" lane="275464049#3_0" pos="20" freq="30" file="map.out"/>
<inductionLoop id="191" lane="222773450#2_0" pos="23" freq="30" file="map.out"/>
<inductionLoop id="192" lane="228710172#0_0" pos="73" freq="30" file="map.out"/>
<inductionLoop id="193" lane="228709889#2_0" pos="110" freq="30" file="map.out"/>
<inductionLoop id="194" lane="-224344455#1_0" pos="94" freq="30" file="map.out"/>
<inductionLoop id="195" lane="24395549#0-AddedOffRampEdge_1" pos="30" freq="30" file="map.out"/>
<inductionLoop id="196" lane="-228709888_0" pos="28" freq="30" file="map.out"/>
<inductionLoop id="197" lane="-87307172#5_0" pos="129" freq="30" file="map.out"/>
<inductionLoop id="198" lane="89418731#4_0" pos="64" freq="30" file="map.out"/>
<inductionLoop id="199" lane="224343308#2_0" pos="66" freq="30" file="map.out"/>
<inductionLoop id="200" lane="98836472#2_0" pos="14" freq="30" file="map.out"/>
<inductionLoop id="201" lane="99045817#3_0" pos="79" freq="30" file="map.out"/>
<inductionLoop id="202" lane="199806290_1" pos="29" freq="30" file="map.out"/>
<inductionLoop id="203" lane="24550171_1" pos="386" freq="30" file="map.out"/>
<inductionLoop id="204" lane="-222773367_0" pos="130" freq="30" file="map.out"/>
<inductionLoop id="205" lane="99886920#3_1" pos="54" freq="30" file="map.out"/>
<inductionLoop id="206" lane="24395768#2-AddedOnRampEdge_2" pos="83" freq="30" file="map.out"/>
<inductionLoop id="207" lane=":2800855176_2_0" pos="14" freq="30" file="map.out"/>
<inductionLoop id="208" lane="87293202#2-AddedOnRampEdge_2" pos="12" freq="30" file="map.out"/>
<inductionLoop id="209" lane="224326352#5_0" pos="30" freq="30" file="map.out"/>
<inductionLoop id="210" lane="-224324806#1_0" pos="15" freq="30" file="map.out"/>
<inductionLoop id="211" lane="224326352#4_0" pos="15" freq="30" file="map.out"/>
<inductionLoop id="212" lane="99054392#4-AddedOnRampEdge_1" pos="11" freq="30" file="map.out"/>
<inductionLoop id="213" lane="222609132#0_0" pos="18" freq="30" file="map.out"/>
<inductionLoop id="214" lane="224344455#2_0" pos="64" freq="30" file="map.out"/>
<inductionLoop id="215" lane="224344471#16_0" pos="117" freq="30" file="map.out"/>
<inductionLoop id="216" lane="100700534#5_0" pos="26" freq="30" file="map.out"/>
<inductionLoop id="217" lane="-293871190_0" pos="54" freq="30" file="map.out"/>
<inductionLoop id="218" lane="-224324778#1_0" pos="55" freq="30" file="map.out"/>
<inductionLoop id="219" lane="223639431#5_1" pos="34" freq="30" file="map.out"/>
<inductionLoop id="220" lane="201479198#3_0" pos="284" freq="30" file="map.out"/>
<inductionLoop id="221" lane="-275469114_0" pos="11" freq="30" file="map.out"/>
<inductionLoop id="222" lane="-224324847#0_0" pos="25" freq="30" file="map.out"/>
<inductionLoop id="223" lane="275462563#1_0" pos="16" freq="30" file="map.out"/>
<inductionLoop id="224" lane="-87307115#4_0" pos="31" freq="30" file="map.out"/>
<inductionLoop id="225" lane="10611120#3_0" pos="114" freq="30" file="map.out"/>
<inductionLoop id="226" lane="89382511#4_1" pos="20" freq="30" file="map.out"/>
<inductionLoop id="227" lane="-99045801#8_0" pos="31" freq="30" file="map.out"/>
<inductionLoop id="228" lane="10611120#5-AddedOnRampEdge_2" pos="32" freq="30" file="map.out"/>
<inductionLoop id="229" lane="-99045803#2_0" pos="22" freq="30" file="map.out"/>
<inductionLoop id="230" lane="222773430#3_1" pos="27" freq="30" file="map.out"/>
<inductionLoop id="231" lane="-224343274#1_0" pos="23" freq="30" file="map.out"/>
<inductionLoop id="232" lane="224279953#1_1" pos="21" freq="30" file="map.out"/>
<inductionLoop id="233" lane="-224344472#5_0" pos="15" freq="30" file="map.out"/>
<inductionLoop id="234" lane="224327177#2_0" pos="15" freq="30" file="map.out"/>
<inductionLoop id="235" lane="224344471#7_0" pos="38" freq="30" file="map.out"/>
<inductionLoop id="236" lane="99810854_0" pos="99" freq="30" file="map.out"/>
<inductionLoop id="237" lane="-228714411#0_0" pos="54" freq="30" file="map.out"/>
<inductionLoop id="238" lane="221976979#12_0" pos="57" freq="30" file="map.out"/>
<inductionLoop id="239" lane="-223639457#0_0" pos="42" freq="30" file="map.out"/>
<inductionLoop id="240" lane="222111135#2+222111163#0_2" pos="30" freq="30" file="map.out"/>
<inductionLoop id="241" lane="155404694#6_0" pos="14" freq="30" file="map.out"/>
<inductionLoop id="242" lane="-201479193#5_0" pos="209" freq="30" file="map.out"/>
<inductionLoop id="243" lane="24550167_0" pos="529" freq="30" file="map.out"/>
<inductionLoop id="244" lane="222111172#2_0" pos="38" freq="30" file="map.out"/>
<inductionLoop id="245" lane="156663255#0_3" pos="4695" freq="30" file="map.out"/>
</additional>
