<?xml version="1.0"?>
<!-- generated on 2014-12-09 19:54:41.832912 by $Id: randomTrips.py 16365 2014-05-13 08:50:42Z namdre $ 
  options: -n map.net.xml -e 50 -l -r map.rou.xml
-->
<trips>
    <trip id="0" depart="0.00" from="223517333#1" to="99350865" />
    <trip id="1" depart="1.00" from="99350865" to="-201576301" />
    <trip id="2" depart="2.00" from="228711970" to="-224344437#0" />
    <trip id="3" depart="3.00" from="200764222#4" to="201479194#2" />
    <trip id="4" depart="4.00" from="300264633" to="223517826#1-AddedOffRampEdge" />
    <trip id="5" depart="5.00" from="-228714002" to="228711975#1" />
    <trip id="6" depart="6.00" from="24455892" to="-222637863#3" />
    <trip id="7" depart="7.00" from="-201576133#0" to="223639418#3" />
    <trip id="8" depart="8.00" from="224324837#1" to="224320551#4" />
    <trip id="9" depart="9.00" from="228711976#1" to="10478605#1" />
    <trip id="10" depart="10.00" from="233936815#0" to="99880426#4" />
    <trip id="11" depart="11.00" from="289639261#9" to="100700534#0" />
    <trip id="12" depart="12.00" from="99054076#5" to="24494640#2" />
    <trip id="13" depart="13.00" from="224320546#7" to="25911285#1" />
    <trip id="14" depart="14.00" from="100700760#6" to="244558616#1" />
    <trip id="15" depart="15.00" from="-24291487#9" to="-87307182#1" />
    <trip id="16" depart="16.00" from="228714438#1" to="-97646200#4" />
    <trip id="17" depart="17.00" from="98836469#2" to="-222637838#2" />
    <trip id="18" depart="18.00" from="-10711845" to="24291487#2" />
    <trip id="19" depart="19.00" from="-228714448" to="-224344455#1" />
    <trip id="20" depart="20.00" from="86572097#0" to="-228714001#2" />
    <trip id="21" depart="21.00" from="-200764164#5" to="244556267#3" />
    <trip id="22" depart="22.00" from="89382499#3" to="98836475#2" />
    <trip id="23" depart="23.00" from="99350867#2" to="99880426#7" />
    <trip id="24" depart="24.00" from="-170224259#0" to="-201479199#0" />
    <trip id="25" depart="25.00" from="299883340" to="174755471#1" />
    <trip id="26" depart="26.00" from="24395768#2" to="149780417#8" />
    <trip id="27" depart="27.00" from="201500280#4" to="-170224259#0" />
    <trip id="28" depart="28.00" from="224324848" to="-160500395" />
    <trip id="29" depart="29.00" from="-222778214#9" to="-96032163#1" />
    <trip id="30" depart="30.00" from="87307130#0" to="-224337210#0" />
    <trip id="31" depart="31.00" from="-99369089" to="-224371142#7" />
    <trip id="32" depart="32.00" from="24455892" to="224337204#0" />
    <trip id="33" depart="33.00" from="-87307072" to="-223643127#0" />
    <trip id="34" depart="34.00" from="224277982" to="222041366#2" />
    <trip id="35" depart="35.00" from="222767225#4" to="155304355" />
    <trip id="36" depart="36.00" from="222773450#1" to="-275464049#3" />
    <trip id="37" depart="37.00" from="-228714427#0" to="224279940#2" />
    <trip id="38" depart="38.00" from="99884586#2" to="87307046" />
    <trip id="39" depart="39.00" from="-228710354#1" to="99884542#2" />
    <trip id="40" depart="40.00" from="167276187#0-AddedOffRampEdge" to="24036926" />
    <trip id="41" depart="41.00" from="149779629#0" to="99046327#1" />
    <trip id="42" depart="42.00" from="272676609#1" to="135704719" />
    <trip id="43" depart="43.00" from="50166174" to="50338696#4" />
    <trip id="44" depart="44.00" from="96032119#2" to="24494640#0" />
    <trip id="45" depart="45.00" from="199894459#4" to="50338679#1" />
    <trip id="46" depart="46.00" from="276687861#1" to="224371139#5" />
    <trip id="47" depart="47.00" from="24186156#6" to="99353797" />
    <trip id="48" depart="48.00" from="233936815#0" to="24381507#0" />
    <trip id="49" depart="49.00" from="-201576145#0" to="-194081086#1" />
</trips>